final/Texas2k_series24_cases_with_dynamics/Texas2k_series24_case2_2016lowload/Texas2k_series24_case2_2016lowload.m
% Case saved by PowerWorld Simulator, version 23, build date October 25, 2023
% Case Information Header = 9 lines
% Texas2k_series24_case2_2016lowload
% This is a synthetic power system model that does NOT represent the actual grid. 
% It was developed at Texas A&M University and contains no CEII.
% [1] A.B. Birchfield, T. Xu, K.M. Gegner, K.S. Shetye, and T.J. Overbye,
%  "Grid Structural Characteristics as Validation Criteria for Synthetic Networks,"
%  IEEE Transactions on Power Systems, vol. 32, no. 4, pp. 3258-3265, July 2017.
% [2] J. Baek and A. B. Birchfield, “A tuning method for exciters and governors 
%  in realistic synthetic grids with dynamics,” 2023 North American Power 
%  Symposium (NAPS), Asheville, NC, USA, Oct. 2023, pp. 1-6.
function mpc = Texas2k_series24_case2_2016lowload
mpc.version = '2';
mpc.baseMVA =  100.00;

%% bus data 
mpc.bus = [
1001	1	11.43	5.89	0.00	0.00	1	0.9957152	-16.876966	115.00	9	1.100	0.900	18.66	-0.00	0	0
1002	1	8.48	4.37	0.00	0.00	1	1.0247995	-4.052420	115.00	9	1.100	0.900	18.66	0.00	0	0
1003	1	0.00	0.00	0.00	0.00	1	1.0118994	-9.661535	115.00	9	1.100	0.900	18.66	-0.00	0	0
1004	2	0.00	0.00	0.00	0.00	1	1.0176061	-12.011594	230.00	9	1.100	0.900	18.66	-0.00	0	0
1005	1	0.00	0.00	0.00	0.00	1	1.0103225	-3.811277	115.00	9	1.100	0.900	18.66	-0.00	0	0
1006	2	0.00	0.00	0.00	0.00	1	1.0039140	-1.656353	13.80	9	1.100	0.900	18.66	-0.00	0	0
1007	1	3.85	1.99	0.00	-2.44	1	1.0300000	-5.479713	115.00	9	1.100	0.900	18.66	0.00	0	0
1008	1	0.00	0.00	0.00	0.00	1	1.0240089	2.920111	115.00	9	1.100	0.900	18.66	-0.00	0	0
1009	2	0.00	0.00	0.00	0.00	1	1.0140271	6.184999	13.80	9	1.100	0.900	18.66	-0.00	0	0
1010	1	0.00	0.00	0.00	-4.90	1	1.0300000	-2.981436	115.00	9	1.100	0.900	18.66	0.00	0	0
1011	2	0.00	0.00	0.00	0.00	1	1.0302178	-1.228473	22.00	9	1.100	0.900	18.66	-0.00	0	0
1012	1	1.64	0.85	0.00	9.50	1	1.0222530	-12.469979	115.00	9	1.100	0.900	18.66	-0.00	0	0
1013	1	16.07	8.28	0.00	0.00	1	1.0153004	-6.552866	115.00	9	1.100	0.900	18.66	-0.00	0	0
1014	1	1.22	0.63	0.00	0.00	1	1.0183348	-2.395126	115.00	9	1.100	0.900	18.66	-0.00	0	0
1015	1	4.13	2.13	0.00	0.00	1	1.0327474	-4.452477	115.00	9	1.100	0.900	18.66	0.00	0	0
1016	1	1.59	0.82	0.00	30.00	1	1.0242982	-1.104338	115.00	9	1.100	0.900	18.66	0.00	0	0
1017	1	10.09	5.20	0.00	0.00	1	0.9944049	-12.825955	115.00	9	1.100	0.900	18.66	-0.00	0	0
1018	1	0.04	0.02	0.00	0.00	1	1.0017970	-10.813917	115.00	9	1.100	0.900	18.66	-0.00	0	0
1019	1	33.98	17.50	0.00	142.98	1	1.0123505	-16.060988	115.00	9	1.100	0.900	18.66	0.00	0	0
1020	1	0.00	0.00	0.00	76.73	1	1.0263134	-4.692221	115.00	9	1.100	0.900	18.66	-0.00	0	0
1021	2	0.00	0.00	0.00	0.00	1	1.0020394	1.886934	13.80	9	1.100	0.900	18.66	-0.00	0	0
1022	1	0.00	0.00	0.00	0.00	1	1.0139189	-9.045595	115.00	9	1.100	0.900	18.66	-0.00	0	0
1023	2	0.00	0.00	0.00	0.00	1	1.0100000	-0.150618	13.80	9	1.100	0.900	18.66	0.00	0	0
1024	1	34.67	17.86	0.00	0.00	1	1.0016307	-9.204461	115.00	9	1.100	0.900	18.66	-0.00	0	0
1025	1	0.00	0.00	0.00	0.00	1	1.0215282	-3.131663	115.00	9	1.100	0.900	18.66	-0.00	0	0
1026	2	0.00	0.00	0.00	0.00	1	1.0000000	6.354955	13.80	9	1.100	0.900	18.66	0.00	0	0
1027	1	55.67	28.68	0.00	75.00	1	1.0233868	-14.434884	115.00	9	1.100	0.900	18.66	0.00	0	0
1028	1	5.51	2.84	0.00	0.00	1	1.0160027	-11.162254	115.00	9	1.100	0.900	18.66	-0.00	0	0
1029	1	45.75	23.57	0.00	40.00	1	1.0207845	-12.952464	115.00	9	1.100	0.900	18.66	0.00	0	0
1030	1	13.54	6.98	0.00	0.00	1	1.0241535	-0.197760	115.00	9	1.100	0.900	18.66	-0.00	0	0
1031	1	5.09	2.62	0.00	0.00	1	1.0232795	-6.412740	115.00	9	1.100	0.900	18.66	-0.00	0	0
1032	1	0.00	0.00	0.00	0.00	1	1.0024086	-1.424309	115.00	9	1.100	0.900	18.66	-0.00	0	0
1033	2	0.00	0.00	0.00	50.00	1	1.0263282	-7.698301	230.00	9	1.100	0.900	18.66	-0.00	0	0
1034	1	0.00	0.00	0.00	0.00	1	1.0095835	-0.647472	115.00	9	1.100	0.900	18.66	-0.00	0	0
1035	2	0.00	0.00	0.00	0.00	1	1.0000000	2.640767	13.80	9	1.100	0.900	18.66	0.00	0	0
1036	1	7.48	3.85	0.00	0.00	1	0.9986592	-0.071967	115.00	9	1.100	0.900	18.66	-0.00	0	0
1037	1	56.23	28.97	0.00	0.00	1	0.9880846	-15.006761	115.00	9	1.100	0.900	18.66	-0.00	0	0
1038	1	0.00	0.00	0.00	0.00	1	1.0219975	3.943515	115.00	9	1.100	0.900	18.66	-0.00	0	0
1039	2	0.00	0.00	0.00	0.00	1	1.0015435	9.295289	22.00	9	1.100	0.900	18.66	0.00	0	0
1040	1	24.40	12.57	0.00	0.00	1	1.0016670	-11.286428	115.00	9	1.100	0.900	18.66	-0.00	0	0
1041	1	0.00	0.00	0.00	0.00	1	1.0076063	-1.897048	115.00	9	1.100	0.900	18.66	-0.00	0	0
1042	2	0.00	0.00	0.00	0.00	1	1.0076063	-1.897048	13.80	9	1.100	0.900	18.66	-0.00	0	0
1043	2	0.00	0.00	0.00	0.00	1	1.0000000	1.335248	13.80	9	1.100	0.900	18.66	0.00	0	0
1044	1	8.08	4.16	0.00	0.00	1	1.0163207	-15.911328	115.00	9	1.100	0.900	18.66	-0.00	0	0
1045	1	54.21	27.93	0.00	0.00	1	0.9967905	-16.713437	115.00	9	1.100	0.900	18.66	-0.00	0	0
1046	1	6.10	3.14	0.00	12.00	1	1.0294930	-10.094920	115.00	9	1.100	0.900	18.66	-0.00	0	0
1047	1	0.00	0.00	0.00	0.00	1	1.0122001	-5.713198	115.00	9	1.100	0.900	18.66	-0.00	0	0
1048	2	0.00	0.00	0.00	0.00	1	1.0122001	-5.713198	18.00	9	1.100	0.900	18.66	-0.00	0	0
1049	2	0.00	0.00	0.00	0.00	1	1.0122001	-5.713198	18.00	9	1.100	0.900	18.66	-0.00	0	0
1050	2	0.00	0.00	0.00	0.00	1	1.0015623	-1.024697	18.00	9	1.100	0.900	18.66	0.00	0	0
1051	2	0.00	0.00	0.00	0.00	1	1.0000001	0.356817	18.00	9	1.100	0.900	18.66	0.00	0	0
1052	2	0.00	0.00	0.00	0.00	1	1.0122001	-5.713198	18.00	9	1.100	0.900	18.66	-0.00	0	0
1053	2	0.00	0.00	0.00	0.00	1	1.0266593	-9.471681	230.00	9	1.100	0.900	18.66	-0.00	0	0
1054	1	8.24	4.25	0.00	0.00	1	1.0180036	-10.528574	115.00	9	1.100	0.900	18.66	-0.00	0	0
1055	1	2.19	1.13	0.00	0.00	1	1.0080574	-10.014264	115.00	9	1.100	0.900	18.66	-0.00	0	0
1056	1	0.00	0.00	0.00	45.55	1	1.0300000	-9.838105	115.00	9	1.100	0.900	18.66	0.00	0	0
1057	2	0.00	0.00	0.00	0.00	1	1.0300000	-9.838105	18.00	9	1.100	0.900	18.66	0.00	0	0
1058	1	7.40	3.81	0.00	0.00	1	1.0265251	0.719196	115.00	9	1.100	0.900	18.66	-0.00	0	0
1059	2	0.00	0.00	0.00	0.00	1	1.0265251	0.719196	22.00	9	1.100	0.900	18.66	-0.00	0	0
1060	2	0.00	0.00	0.00	0.00	1	1.0265251	0.719196	22.00	9	1.100	0.900	18.66	-0.00	0	0
1061	1	0.00	0.00	0.00	0.00	1	1.0118054	-5.191382	115.00	9	1.100	0.900	18.66	-0.00	0	0
1062	2	0.00	0.00	0.00	0.00	1	1.0118054	-5.191382	13.80	9	1.100	0.900	18.66	-0.00	0	0
1063	2	0.00	0.00	0.00	0.00	1	1.0118054	-5.191382	13.80	9	1.100	0.900	18.66	-0.00	0	0
1064	1	68.07	35.07	0.00	0.00	1	0.9906204	-17.270131	115.00	9	1.100	0.900	18.66	-0.00	0	0
1065	1	0.00	0.00	0.00	0.00	1	1.0095315	-1.911545	115.00	9	1.100	0.900	18.66	-0.00	0	0
1066	2	0.00	0.00	0.00	0.00	1	1.0000000	5.594906	13.80	9	1.100	0.900	18.66	0.00	0	0
1067	1	55.85	28.77	0.00	0.00	1	1.0057662	-2.327583	115.00	9	1.100	0.900	18.66	-0.00	0	0
1068	1	32.67	16.83	0.00	0.00	1	0.9954012	-1.133277	115.00	9	1.100	0.900	18.66	-0.00	0	0
1069	1	0.00	0.00	0.00	0.00	1	1.0278379	3.013320	115.00	9	1.100	0.900	18.66	-0.00	0	0
1070	2	0.00	0.00	0.00	0.00	1	1.0400000	7.506475	13.80	9	1.100	0.900	18.66	0.00	0	0
1071	1	50.31	25.91	0.00	0.00	1	1.0007221	-16.486917	115.00	9	1.100	0.900	18.66	0.00	0	0
1072	2	0.00	0.00	0.00	0.00	1	1.0100000	-7.843049	18.00	9	1.100	0.900	18.66	0.00	0	0
1073	2	0.00	0.00	0.00	0.00	1	1.0100001	-1.976292	18.00	9	1.100	0.900	18.66	0.00	0	0
1074	2	0.00	0.00	0.00	0.00	1	1.0007221	-16.486917	18.00	9	1.100	0.900	18.66	0.00	0	0
1075	2	0.00	0.00	0.00	0.00	1	1.0007221	-16.486917	18.00	9	1.100	0.900	18.66	0.00	0	0
1076	2	0.00	0.00	0.00	0.00	1	1.0007221	-16.486917	18.00	9	1.100	0.900	18.66	0.00	0	0
1077	2	0.00	0.00	0.00	0.00	1	1.0007221	-16.486917	18.00	9	1.100	0.900	18.66	0.00	0	0
1078	2	0.00	0.00	0.00	0.00	1	1.0100000	-6.873225	18.00	9	1.100	0.900	18.66	0.00	0	0
1079	2	0.00	0.00	0.00	0.00	1	1.0505081	-32.054698	500.00	9	1.100	0.900	18.66	0.00	0	0
1080	2	0.00	0.00	0.00	0.00	1	1.0007221	-16.486917	18.00	9	1.100	0.900	18.66	0.00	0	0
1081	2	0.00	0.00	0.00	73.29	1	1.0300000	-10.749457	230.00	9	1.100	0.900	18.66	0.00	0	0
1082	2	0.00	0.00	0.00	0.00	1	1.0248079	5.711187	115.00	9	1.100	0.900	18.66	-0.00	0	0
1083	1	21.97	11.32	0.00	26.15	1	1.0263978	1.814526	115.00	9	1.100	0.900	18.66	-0.00	0	0
1084	2	0.00	0.00	0.00	0.00	1	1.0295098	-6.607840	115.00	9	1.100	0.900	18.66	-0.00	0	0
1085	1	11.71	6.03	0.00	0.00	1	1.0164582	-6.607334	115.00	9	1.100	0.900	18.66	-0.00	0	0
1086	1	21.82	11.24	0.00	30.00	1	1.0291835	-7.920818	115.00	9	1.100	0.900	18.66	0.00	0	0
1087	1	0.50	0.26	0.00	8.30	1	1.0300000	-3.934879	115.00	9	1.100	0.900	18.66	0.00	0	0
1088	2	0.00	0.00	0.00	0.00	1	1.0000000	1.772998	115.00	9	1.100	0.900	18.66	0.00	0	0
1089	1	22.33	11.50	0.00	0.00	1	0.9972018	-11.018019	115.00	9	1.100	0.900	18.66	-0.00	0	0
1090	2	0.00	0.00	0.00	0.00	1	1.0200000	-6.583050	115.00	9	1.100	0.900	18.66	0.00	0	0
1091	1	6.39	3.29	0.00	0.00	1	1.0319073	-24.987158	161.00	9	1.100	0.900	18.66	-0.00	0	0
2001	1	26.60	13.70	0.00	0.00	2	1.0284102	-49.394152	161.00	11	1.100	0.900	18.66	-0.00	0	0
2002	1	0.00	0.00	0.00	0.00	2	1.0336987	-48.896651	500.00	11	1.100	0.900	18.66	-0.00	0	0
2003	1	0.00	0.00	0.00	0.00	2	1.0320661	-50.020397	161.00	11	1.100	0.900	18.66	-0.00	0	0
2004	2	0.00	0.00	0.00	0.00	2	1.0336987	-48.896651	13.80	11	1.100	0.900	18.66	-0.00	0	0
2005	2	0.00	0.00	0.00	0.00	2	1.0336987	-48.896651	13.80	11	1.100	0.900	18.66	-0.00	0	0
2006	2	0.00	0.00	0.00	0.00	2	1.0336987	-48.896651	13.80	11	1.100	0.900	18.66	-0.00	0	0
2007	1	5.25	2.70	0.00	0.00	2	1.0289315	-49.218301	161.00	11	1.100	0.900	18.66	-0.00	0	0
2008	1	4.43	2.28	0.00	0.00	2	1.0365123	-25.954080	161.00	10	1.100	0.900	18.66	-0.00	0	0
2009	1	21.52	11.09	0.00	62.49	2	1.0300000	-36.722842	161.00	11	1.100	0.900	18.66	0.00	0	0
2010	1	31.24	16.09	0.00	21.44	2	1.0300000	-26.107938	161.00	10	1.100	0.900	18.66	0.00	0	0
2011	1	0.00	0.00	0.00	0.00	2	1.0563168	-26.634829	500.00	10	1.100	0.900	18.66	-0.00	0	0
2012	1	0.00	0.00	0.00	0.00	2	1.0449075	-24.358781	161.00	10	1.100	0.900	18.66	-0.00	0	0
2013	2	0.00	0.00	0.00	0.00	2	1.0481254	-24.372244	18.00	10	1.100	0.900	18.66	-0.00	0	0
2014	1	13.99	7.20	0.00	0.00	2	1.0335202	-26.267850	161.00	10	1.100	0.900	18.66	-0.00	0	0
2015	1	2.58	1.33	0.00	0.00	2	1.0224402	-47.024606	161.00	11	1.100	0.900	18.66	-0.00	0	0
2016	1	38.10	19.63	0.00	0.00	2	1.0225439	-52.636983	161.00	11	1.100	0.900	18.66	0.00	0	0
2017	1	0.00	0.00	0.00	-200.00	2	1.0444937	-27.834261	500.00	10	1.100	0.900	18.66	-0.00	0	0
2018	1	0.00	0.00	0.00	0.00	2	1.0419562	-26.670835	161.00	10	1.100	0.900	18.66	-0.00	0	0
2019	2	0.00	0.00	0.00	0.00	2	1.0444937	-27.834261	20.00	10	1.100	0.900	18.66	-0.00	0	0
2020	1	26.39	13.59	0.00	0.00	2	1.0216756	-37.746970	161.00	11	1.100	0.900	18.66	-0.00	0	0
2021	1	0.00	0.00	0.00	0.00	2	1.0364396	-47.871226	500.00	11	1.100	0.900	18.66	-0.00	0	0
2022	1	6.36	3.28	0.00	0.00	2	1.0337504	-48.749288	161.00	11	1.100	0.900	18.66	-0.00	0	0
2023	2	0.00	0.00	0.00	0.00	2	1.0364396	-47.871226	13.80	11	1.100	0.900	18.66	0.00	0	0
2024	2	0.00	0.00	0.00	0.00	2	1.0319916	-45.856093	13.80	11	1.100	0.900	18.66	0.00	0	0
2025	1	21.79	11.23	0.00	0.00	2	1.0201290	-37.219081	161.00	11	1.100	0.900	18.66	-0.00	0	0
2026	1	10.21	5.26	0.00	0.00	2	1.0450013	-25.338464	161.00	10	1.100	0.900	18.66	-0.00	0	0
2027	1	1.96	1.01	0.00	0.00	2	1.0296081	-49.580230	161.00	11	1.100	0.900	18.66	-0.00	0	0
2028	1	7.83	4.03	0.00	0.00	2	1.0202233	-38.640957	161.00	11	1.100	0.900	18.66	-0.00	0	0
2029	1	1.76	0.91	0.00	0.00	2	1.0356490	-25.951417	161.00	10	1.100	0.900	18.66	-0.00	0	0
2030	1	25.93	13.36	0.00	0.00	2	1.0176516	-50.734498	161.00	11	1.100	0.900	18.66	-0.00	0	0
2031	1	3.17	1.63	0.00	0.00	2	1.0275920	-20.882848	161.00	10	1.100	0.900	18.66	-0.00	0	0
2032	1	1.84	0.95	0.00	0.00	2	1.0306091	-48.984620	161.00	11	1.100	0.900	18.66	-0.00	0	0
2033	1	7.46	3.85	0.00	0.00	2	1.0184441	-51.148773	161.00	11	1.100	0.900	18.66	-0.00	0	0
2034	1	2.94	1.51	0.00	0.00	2	1.0254277	-52.489962	161.00	11	1.100	0.900	18.66	-0.00	0	0
2035	1	2.58	1.33	0.00	0.00	2	1.0249075	-20.282169	161.00	10	1.100	0.900	18.66	-0.00	0	0
2036	1	22.87	11.78	0.00	0.00	2	1.0222646	-37.417955	161.00	11	1.100	0.900	18.66	-0.00	0	0
2037	1	1.93	0.99	0.00	0.00	2	1.0282326	-47.178795	161.00	11	1.100	0.900	18.66	-0.00	0	0
2038	1	1.43	0.74	0.00	0.00	2	1.0297711	-50.271476	161.00	11	1.100	0.900	18.66	-0.00	0	0
2039	1	3.06	1.58	0.00	0.00	2	1.0165717	-45.732810	161.00	11	1.100	0.900	18.66	-0.00	0	0
2040	1	8.75	4.51	0.00	0.00	2	1.0333228	-49.124440	161.00	11	1.100	0.900	18.66	-0.00	0	0
2041	1	0.00	0.00	0.00	0.00	2	1.0460614	-22.225912	161.00	10	1.100	0.900	18.66	-0.00	0	0
2042	2	0.00	0.00	0.00	0.00	2	1.0376541	-19.739570	18.00	10	1.100	0.900	18.66	-0.00	0	0
2043	1	2.33	1.20	0.00	0.00	2	1.0241540	-52.564634	161.00	11	1.100	0.900	18.66	-0.00	0	0
2044	1	15.07	7.76	0.00	0.00	2	1.0274569	-49.211764	161.00	11	1.100	0.900	18.66	-0.00	0	0
2045	1	12.43	6.40	0.00	0.00	2	1.0210049	-37.957209	161.00	11	1.100	0.900	18.66	-0.00	0	0
2046	1	12.17	6.27	0.00	0.00	2	1.0270205	-52.379877	161.00	11	1.100	0.900	18.66	-0.00	0	0
2047	1	8.23	4.24	0.00	0.00	2	1.0311404	-50.456063	161.00	11	1.100	0.900	18.66	-0.00	0	0
2048	1	3.53	1.82	0.00	0.00	2	1.0319253	-23.746540	161.00	10	1.100	0.900	18.66	-0.00	0	0
2049	1	6.36	3.28	0.00	0.00	2	1.0236153	-31.758007	161.00	10	1.100	0.900	18.66	-0.00	0	0
2050	1	2.01	1.04	0.00	0.00	2	1.0241973	-50.627434	161.00	11	1.100	0.900	18.66	-0.00	0	0
2051	1	9.82	5.06	0.00	0.00	2	1.0179014	-42.103080	161.00	11	1.100	0.900	18.66	-0.00	0	0
2052	1	13.66	7.04	0.00	0.00	2	1.0380471	-25.475962	161.00	10	1.100	0.900	18.66	-0.00	0	0
2053	1	16.02	8.25	0.00	0.00	2	1.0180952	-45.357510	161.00	11	1.100	0.900	18.66	-0.00	0	0
2054	1	0.00	0.00	0.00	0.00	2	1.0265999	-37.121117	500.00	11	1.100	0.900	18.66	-0.00	0	0
2055	1	27.29	14.06	0.00	0.00	2	1.0236414	-37.362066	161.00	11	1.100	0.900	18.66	-0.00	0	0
2056	2	0.00	0.00	0.00	0.00	2	1.0265999	-37.121117	18.00	11	1.100	0.900	18.66	-0.00	0	0
2057	2	0.00	0.00	0.00	0.00	2	1.0265999	-37.121117	18.00	11	1.100	0.900	18.66	-0.00	0	0
2058	1	0.00	0.00	0.00	0.00	2	1.0465430	-21.785069	161.00	10	1.100	0.900	18.66	-0.00	0	0
2059	2	0.00	0.00	0.00	0.00	2	1.0367828	-18.555441	13.80	10	1.100	0.900	18.66	-0.00	0	0
2060	1	2.09	1.08	0.00	0.00	2	1.0254616	-50.038596	161.00	11	1.100	0.900	18.66	-0.00	0	0
2061	1	0.00	0.00	0.00	0.00	2	1.0246785	-27.853732	161.00	10	1.100	0.900	18.66	-0.00	0	0
2062	2	0.00	0.00	0.00	0.00	2	1.0200000	-25.557131	18.00	10	1.100	0.900	18.66	0.00	0	0
2063	1	36.09	18.59	0.00	38.19	2	1.0300000	-52.138455	161.00	11	1.100	0.900	18.66	-0.00	0	0
2064	1	5.53	2.85	0.00	0.00	2	1.0294353	-49.400442	161.00	11	1.100	0.900	18.66	-0.00	0	0
2065	1	43.10	22.20	0.00	55.78	2	1.0300000	-48.641898	161.00	11	1.100	0.900	18.66	0.00	0	0
2066	1	3.91	2.02	0.00	0.00	2	1.0225627	-17.629460	161.00	10	1.100	0.900	18.66	-0.00	0	0
2067	1	29.68	15.29	0.00	0.00	2	1.0174497	-36.871061	161.00	11	1.100	0.900	18.66	-0.00	0	0
2068	1	3.17	1.63	0.00	0.00	2	1.0165514	-34.581442	161.00	11	1.100	0.900	18.66	-0.00	0	0
2069	1	12.06	6.21	0.00	57.01	2	1.0300000	-52.053745	161.00	11	1.100	0.900	18.66	0.00	0	0
2070	1	0.00	0.00	0.00	0.00	2	1.0172110	-34.094147	161.00	11	1.100	0.900	18.66	-0.00	0	0
2071	2	0.00	0.00	0.00	0.00	2	1.0043512	-30.474787	18.00	11	1.100	0.900	18.66	0.00	0	0
2072	1	5.34	2.75	0.00	0.00	2	1.0291716	-51.108738	161.00	11	1.100	0.900	18.66	0.00	0	0
2073	1	0.00	0.00	0.00	0.00	2	1.0216447	-15.432555	161.00	10	1.100	0.900	18.66	-0.00	0	0
2074	1	0.00	0.00	0.00	0.00	2	1.0101411	-13.099057	115.00	10	1.100	0.900	18.66	-0.00	0	0
2075	1	0.00	0.00	0.00	0.00	2	1.0101411	-13.099057	115.00	10	1.100	0.900	18.66	-0.00	0	0
2076	2	0.00	0.00	0.00	0.00	2	1.0268781	-14.536657	24.00	10	1.100	0.900	18.66	-0.00	0	0
2077	1	0.00	0.00	0.00	0.00	2	1.0284159	-45.340695	161.00	11	1.100	0.900	18.66	-0.00	0	0
2078	2	0.00	0.00	0.00	0.00	2	1.0200000	-42.035552	13.80	11	1.100	0.900	18.66	0.00	0	0
2079	1	2.46	1.27	0.00	0.00	2	1.0324647	-25.232747	161.00	10	1.100	0.900	18.66	-0.00	0	0
2080	1	9.31	4.80	0.00	0.00	2	1.0196494	-43.790137	161.00	11	1.100	0.900	18.66	-0.00	0	0
2081	1	2.46	1.26	0.00	0.00	2	1.0254558	-50.697821	161.00	11	1.100	0.900	18.66	-0.00	0	0
2082	1	32.47	16.73	0.00	0.00	2	1.0223986	-37.367757	161.00	11	1.100	0.900	18.66	-0.00	0	0
2083	2	0.00	0.00	0.00	0.00	2	1.0223986	-37.367757	20.00	11	1.100	0.900	18.66	0.00	0	0
2084	2	0.00	0.00	0.00	0.00	2	1.0223986	-37.367757	20.00	11	1.100	0.900	18.66	-0.00	0	0
2085	2	0.00	0.00	0.00	0.00	2	1.0223986	-37.367757	20.00	11	1.100	0.900	18.66	-0.00	0	0
2086	1	1.21	0.62	0.00	0.00	2	1.0179433	-44.999386	161.00	11	1.100	0.900	18.66	-0.00	0	0
2087	1	4.34	2.24	0.00	0.00	2	1.0240381	-18.148407	161.00	10	1.100	0.900	18.66	-0.00	0	0
2088	1	0.00	0.00	0.00	0.00	2	1.0165913	-34.256364	161.00	11	1.100	0.900	18.66	-0.00	0	0
2089	2	0.00	0.00	0.00	0.00	2	1.0039379	-30.711139	24.00	11	1.100	0.900	18.66	0.00	0	0
2090	1	1.33	0.69	0.00	0.00	2	1.0308082	-49.823251	161.00	11	1.100	0.900	18.66	-0.00	0	0
2091	1	9.38	4.83	0.00	0.00	2	1.0270467	-23.462800	161.00	10	1.100	0.900	18.66	-0.00	0	0
2092	1	13.26	6.83	0.00	0.00	2	1.0296040	-51.337577	161.00	11	1.100	0.900	18.66	-0.00	0	0
2093	1	0.00	0.00	0.00	0.00	2	1.0438758	-25.449721	161.00	10	1.100	0.900	18.66	-0.00	0	0
2094	2	0.00	0.00	0.00	0.00	2	1.0438758	-25.449721	13.80	10	1.100	0.900	18.66	-0.00	0	0
2095	2	0.00	0.00	0.00	0.00	2	1.0438758	-25.449721	13.80	10	1.100	0.900	18.66	-0.00	0	0
2096	1	0.00	0.00	0.00	-223.54	2	1.0297057	-26.758376	500.00	10	1.100	0.900	18.66	-0.00	0	0
2097	1	0.00	0.00	0.00	0.00	2	1.0262623	-25.548145	230.00	10	1.100	0.900	18.66	-0.00	0	0
2098	1	0.00	0.00	0.00	0.00	2	1.0308591	-25.067026	161.00	10	1.100	0.900	18.66	-0.00	0	0
2099	2	0.00	0.00	0.00	0.00	2	1.0292380	-26.617162	18.00	10	1.100	0.900	18.66	-0.00	0	0
2100	2	0.00	0.00	0.00	0.00	2	1.0205026	-24.150869	18.00	10	1.100	0.900	18.66	-0.00	0	0
2101	1	0.00	0.00	0.00	0.00	2	1.0315207	-49.003548	500.00	11	1.100	0.900	18.66	-0.00	0	0
2102	1	0.00	0.00	0.00	0.00	2	1.0292344	-49.543386	161.00	11	1.100	0.900	18.66	-0.00	0	0
2103	2	0.00	0.00	0.00	0.00	2	1.0315207	-49.003548	20.00	11	1.100	0.900	18.66	-0.00	0	0
2104	2	0.00	0.00	0.00	0.00	2	1.0315207	-49.003548	20.00	11	1.100	0.900	18.66	-0.00	0	0
2105	2	0.00	0.00	0.00	0.00	2	1.0315207	-49.003548	20.00	11	1.100	0.900	18.66	-0.00	0	0
2106	1	7.92	4.08	0.00	0.00	2	1.0163310	-51.283123	161.00	11	1.100	0.900	18.66	-0.00	0	0
2107	1	40.78	21.01	0.00	0.00	2	1.0249120	-49.892664	161.00	11	1.100	0.900	18.66	-0.00	0	0
2108	1	1.18	0.61	0.00	0.00	2	1.0216156	-32.381058	161.00	10	1.100	0.900	18.66	0.00	0	0
2109	1	18.60	9.58	0.00	0.00	2	1.0236790	-37.664372	161.00	11	1.100	0.900	18.66	-0.00	0	0
...
];

%% generator data 
mpc.gen = [
1004	158.25	-30.38	44.94	-30.38	1.0100	253.20	1	158.25	158.25	0.00	0.00	0.00	0.00	0.00	0.00	0	0	0	0	211.0000	0	0	0	0
1006	25.73	-4.94	7.31	-4.94	1.0000	41.16	1	25.73	25.73	0.00	0.00	0.00	0.00	0.00	0.00	0	0	0	0	34.3000	0	0	0	0
1009	61.87	-11.88	17.57	-11.88	1.0000	99.00	1	61.87	61.87	0.00	0.00	0.00	0.00	0.00	0.00	0	0	0	0	82.5000	0	0	0	0
1011	10.00	0.00	0.00	0.00	1.0000	12.00	1	10.00	10.00	0.00	0.00	0.00	0.00	0.00	0.00	0	0	0	0	10.0000	0	0	0	0
1021	149.63	-28.73	42.49	-28.73	1.0000	239.40	1	149.63	149.63	0.00	0.00	0.00	0.00	0.00	0.00	0	0	0	0	199.5000	0	0	0	0
1023	135.00	0.97	38.34	-25.92	1.0100	216.00	1	135.00	135.00	0.00	0.00	0.00	0.00	0.00	0.00	0	0	0	0	180.0000	0	0	0	0
1026	93.15	-6.36	26.45	-17.88	1.0000	149.04	1	93.15	93.15	0.00	0.00	0.00	0.00	0.00	0.00	0	0	0	0	124.2000	0	0	0	0
1033	208.50	-40.03	59.21	-40.03	1.0000	333.60	1	208.50	208.50	0.00	0.00	0.00	0.00	0.00	0.00	0	0	0	0	278.0000	0	0	0	0
1035	67.50	-12.80	19.17	-12.96	1.0000	108.00	1	67.50	67.50	0.00	0.00	0.00	0.00	0.00	0.00	0	0	0	0	90.0000	0	0	0	0
1039	110.63	-21.24	31.42	-21.24	1.0000	177.00	1	110.63	110.63	0.00	0.00	0.00	0.00	0.00	0.00	0	0	0	0	147.5000	0	0	0	0
1042	0.00	0.00	25.96	-17.55	1.0000	146.28	0	121.90	36.57	0.00	0.00	0.00	0.00	0.00	0.00	0	0	0	0	121.9000	0	0	0	0
1043	44.10	-5.70	12.52	-8.47	1.0000	70.56	1	44.10	44.10	0.00	0.00	0.00	0.00	0.00	0.00	0	0	0	0	58.8000	0	0	0	0
1048	0.00	0.00	165.53	-36.10	1.0000	390.24	0	325.20	97.56	0.00	0.00	0.00	0.00	0.00	0.00	0	0	0	0	325.2000	0	0	0	0
1049	0.00	0.00	165.53	-36.10	1.0000	390.24	0	325.20	97.56	0.00	0.00	0.00	0.00	0.00	0.00	0	0	0	0	325.2000	0	0	0	0
1050	83.04	-9.92	45.50	-9.92	1.0000	107.28	1	89.40	26.82	0.00	0.00	0.00	0.00	0.00	0.00	0	0	0	0	89.4000	0	0	0	0
1051	83.04	-8.71	45.50	-9.92	1.0000	107.28	1	89.40	26.82	0.00	0.00	0.00	0.00	0.00	0.00	0	0	0	0	89.4000	0	0	0	0
1052	0.00	0.00	45.50	-9.92	1.0000	107.28	0	89.40	26.82	0.00	0.00	0.00	0.00	0.00	0.00	0	0	0	0	89.4000	0	0	0	0
1053	0.00	0.00	91.01	-19.85	1.0000	214.56	0	178.80	53.64	0.00	0.00	0.00	0.00	0.00	0.00	0	0	0	0	178.8000	0	0	0	0
1057	0.00	0.00	25.56	-17.28	1.0000	144.00	0	120.00	36.00	0.00	0.00	0.00	0.00	0.00	0.00	0	0	0	0	120.0000	0	0	0	0
1059	0.00	0.00	2.85	-0.62	1.0400	6.72	0	5.60	1.68	0.00	0.00	0.00	0.00	0.00	0.00	0	0	0	0	5.6000	0	0	0	0
1060	0.00	0.00	1.02	-0.22	1.0400	2.40	0	2.00	0.60	0.00	0.00	0.00	0.00	0.00	0.00	0	0	0	0	2.0000	0	0	0	0
1062	0.00	0.00	0.00	0.00	1.0100	1.80	0	1.50	0.45	0.00	0.00	0.00	0.00	0.00	0.00	0	0	0	0	1.5000	0	0	0	0
1063	0.00	0.00	0.00	0.00	1.0100	276.00	0	230.00	69.00	0.00	0.00	0.00	0.00	0.00	0.00	0	0	0	0	230.0000	0	0	0	0
1066	106.88	-5.12	30.35	-20.52	1.0000	171.00	1	106.88	106.88	0.00	0.00	0.00	0.00	0.00	0.00	0	0	0	0	142.5000	0	0	0	0
1070	120.38	17.65	34.19	-23.11	1.0400	192.60	1	120.38	120.38	0.00	0.00	0.00	0.00	0.00	0.00	0	0	0	0	160.5000	0	0	0	0
1072	178.47	13.34	97.80	-21.33	1.0100	230.56	1	192.13	57.64	0.00	0.00	0.00	0.00	0.00	0.00	0	0	0	0	192.1300	0	0	0	0
1073	178.47	22.95	97.80	-21.33	1.0100	230.56	1	192.13	57.64	0.00	0.00	0.00	0.00	0.00	0.00	0	0	0	0	192.1300	0	0	0	0
1074	0.00	0.00	97.80	-21.33	1.0100	230.56	0	192.13	57.64	0.00	0.00	0.00	0.00	0.00	0.00	0	0	0	0	192.1300	0	0	0	0
1075	0.00	0.00	97.80	-21.33	1.0100	230.56	0	192.13	57.64	0.00	0.00	0.00	0.00	0.00	0.00	0	0	0	0	192.1300	0	0	0	0
1076	0.00	0.00	97.80	-21.33	1.0100	230.56	0	192.13	57.64	0.00	0.00	0.00	0.00	0.00	0.00	0	0	0	0	192.1300	0	0	0	0
1077	0.00	0.00	97.80	-21.33	1.0100	230.56	0	192.13	57.64	0.00	0.00	0.00	0.00	0.00	0.00	0	0	0	0	192.1300	0	0	0	0
1078	88.71	9.87	48.61	-10.60	1.0100	114.60	1	95.50	28.65	0.00	0.00	0.00	0.00	0.00	0.00	0	0	0	0	95.5000	0	0	0	0
1079	0.00	0.00	48.61	-10.60	1.0100	114.60	0	95.50	28.65	0.00	0.00	0.00	0.00	0.00	0.00	0	0	0	0	95.5000	0	0	0	0
1080	0.00	0.00	48.61	-10.60	1.0100	114.60	0	95.50	28.65	0.00	0.00	0.00	0.00	0.00	0.00	0	0	0	0	95.5000	0	0	0	0
1081	0.00	0.00	145.83	-31.80	1.0100	343.80	0	286.50	85.95	0.00	0.00	0.00	0.00	0.00	0.00	0	0	0	0	286.5000	0	0	0	0
1082	112.50	-21.60	31.95	-21.60	1.0000	180.00	1	112.50	112.50	0.00	0.00	0.00	0.00	0.00	0.00	0	0	0	0	150.0000	0	0	0	0
1084	86.62	24.60	24.60	-16.63	1.0400	138.60	1	86.62	86.62	0.00	0.00	0.00	0.00	0.00	0.00	0	0	0	0	115.5000	0	0	0	0
1088	56.25	-6.96	15.97	-10.80	1.0000	90.00	1	56.25	56.25	0.00	0.00	0.00	0.00	0.00	0.00	0	0	0	0	75.0000	0	0	0	0
1090	114.37	8.60	32.48	-21.96	1.0200	183.00	1	114.37	114.37	0.00	0.00	0.00	0.00	0.00	0.00	0	0	0	0	152.5000	0	0	0	0
1090	27.00	7.67	7.67	-5.18	1.0200	43.20	1	27.00	27.00	0.00	0.00	0.00	0.00	0.00	0.00	0	0	0	0	36.0000	0	0	0	0
2004	0.00	0.00	199.43	-43.49	1.0200	470.16	0	391.80	117.54	0.00	0.00	0.00	0.00	0.00	0.00	0	0	0	0	391.8000	0	0	0	0
2005	0.00	0.00	199.43	-43.49	1.0200	470.16	0	391.80	117.54	0.00	0.00	0.00	0.00	0.00	0.00	0	0	0	0	391.8000	0	0	0	0
2006	0.00	0.00	199.43	-43.49	1.0200	470.16	0	391.80	117.54	0.00	0.00	0.00	0.00	0.00	0.00	0	0	0	0	391.8000	0	0	0	0
2013	150.45	-28.89	42.73	-28.89	1.0000	240.72	1	150.45	150.45	0.00	0.00	0.00	0.00	0.00	0.00	0	0	0	0	200.6000	0	0	0	0
2019	0.00	0.00	46.43	-31.39	1.0400	261.60	0	218.00	65.40	0.00	0.00	0.00	0.00	0.00	0.00	0	0	0	0	218.0000	0	0	0	0
2023	0.00	0.00	42.42	-9.25	1.0200	100.00	0	83.33	25.00	0.00	0.00	0.00	0.00	0.00	0.00	0	0	0	0	83.3300	0	0	0	0
2024	154.82	-18.50	84.83	-18.50	1.0200	200.00	1	166.67	50.00	0.00	0.00	0.00	0.00	0.00	0.00	0	0	0	0	166.6700	0	0	0	0
2042	59.70	-11.46	16.95	-11.46	1.0100	95.52	1	59.70	59.70	0.00	0.00	0.00	0.00	0.00	0.00	0	0	0	0	79.6000	0	0	0	0
2056	0.00	0.00	2.80	-0.73	0.9900	7.20	0	6.00	1.80	0.00	0.00	0.00	0.00	0.00	0.00	0	0	0	0	6.0000	0	0	0	0
2057	0.00	0.00	335.52	-87.84	0.9900	864.00	0	720.00	216.00	0.00	0.00	0.00	0.00	0.00	0.00	0	0	0	0	720.0000	0	0	0	0
2059	60.00	-11.52	17.04	-11.52	1.0000	96.00	1	60.00	60.00	0.00	0.00	0.00	0.00	0.00	0.00	0	0	0	0	80.0000	0	0	0	0
2062	101.55	-13.54	28.84	-19.50	1.0200	162.48	1	101.55	101.55	0.00	0.00	0.00	0.00	0.00	0.00	0	0	0	0	135.4000	0	0	0	0
2071	112.50	-21.60	31.95	-21.60	1.0000	180.00	1	112.50	112.50	0.00	0.00	0.00	0.00	0.00	0.00	0	0	0	0	150.0000	0	0	0	0
2076	22.50	6.39	6.39	-4.32	1.0400	36.00	1	22.50	22.50	0.00	0.00	0.00	0.00	0.00	0.00	0	0	0	0	30.0000	0	0	0	0
2078	84.38	-11.94	23.96	-16.20	1.0200	135.00	1	84.38	84.38	0.00	0.00	0.00	0.00	0.00	0.00	0	0	0	0	112.5000	0	0	0	0
2083	0.00	0.00	10.18	-2.22	1.0200	24.00	0	20.00	6.00	0.00	0.00	0.00	0.00	0.00	0.00	0	0	0	0	20.0000	0	0	0	0
2084	0.00	0.00	10.18	-2.22	1.0200	24.00	0	20.00	6.00	0.00	0.00	0.00	0.00	0.00	0.00	0	0	0	0	20.0000	0	0	0	0
2085	0.00	0.00	20.36	-4.44	1.0200	48.00	0	40.00	12.00	0.00	0.00	0.00	0.00	0.00	0.00	0	0	0	0	40.0000	0	0	0	0
2089	50.70	-9.73	14.40	-9.73	1.0000	81.12	1	50.70	50.70	0.00	0.00	0.00	0.00	0.00	0.00	0	0	0	0	67.6000	0	0	0	0
2094	0.00	0.00	2.13	-1.44	1.0000	12.00	0	10.00	3.00	0.00	0.00	0.00	0.00	0.00	0.00	0	0	0	0	10.0000	0	0	0	0
2095	0.00	0.00	16.93	-11.45	1.0000	95.40	0	79.50	23.85	0.00	0.00	0.00	0.00	0.00	0.00	0	0	0	0	79.5000	0	0	0	0
2099	7.50	-1.44	2.13	-1.44	1.0200	12.00	1	7.50	7.50	0.00	0.00	0.00	0.00	0.00	0.00	0	0	0	0	10.0000	0	0	0	0
2100	112.50	-21.60	31.95	-21.60	1.0200	180.00	1	112.50	112.50	0.00	0.00	0.00	0.00	0.00	0.00	0	0	0	0	150.0000	0	0	0	0
2103	0.00	0.00	136.28	-29.72	1.0000	321.28	0	267.73	80.32	0.00	0.00	0.00	0.00	0.00	0.00	0	0	0	0	267.7300	0	0	0	0
2104	0.00	0.00	136.28	-29.72	1.0000	321.28	0	267.73	80.32	0.00	0.00	0.00	0.00	0.00	0.00	0	0	0	0	267.7300	0	0	0	0
2105	0.00	0.00	136.28	-29.72	1.0000	321.28	0	267.73	80.32	0.00	0.00	0.00	0.00	0.00	0.00	0	0	0	0	267.7300	0	0	0	0
2115	171.59	-20.50	94.02	-20.50	1.0000	221.66	1	184.72	55.41	0.00	0.00	0.00	0.00	0.00	0.00	0	0	0	0	184.7200	0	0	0	0
2116	171.59	-20.50	94.02	-20.50	1.0000	221.66	1	184.72	55.41	0.00	0.00	0.00	0.00	0.00	0.00	0	0	0	0	184.7200	0	0	0	0
2117	171.59	-20.50	94.02	-20.50	1.0000	221.66	1	184.72	55.41	0.00	0.00	0.00	0.00	0.00	0.00	0	0	0	0	184.7200	0	0	0	0
2118	0.00	0.00	94.02	-20.50	1.0000	221.66	0	184.72	55.41	0.00	0.00	0.00	0.00	0.00	0.00	0	0	0	0	184.7200	0	0	0	0
2119	0.00	0.00	94.02	-20.50	1.0000	221.66	0	184.72	55.41	0.00	0.00	0.00	0.00	0.00	0.00	0	0	0	0	184.7200	0	0	0	0
2120	0.00	0.00	94.02	-20.50	1.0100	221.66	0	184.72	55.41	0.00	0.00	0.00	0.00	0.00	0.00	0	0	0	0	184.7200	0	0	0	0
2123	136.28	-26.16	38.70	-26.16	1.0000	218.04	1	136.28	136.28	0.00	0.00	0.00	0.00	0.00	0.00	0	0	0	0	181.7000	0	0	0	0
2127	216.45	-41.56	61.47	-41.56	1.0400	346.32	1	216.45	216.45	0.00	0.00	0.00	0.00	0.00	0.00	0	0	0	0	288.6000	0	0	0	0
3004	28.13	-5.40	7.99	-5.40	1.0000	45.00	1	28.13	28.13	0.00	0.00	0.00	0.00	0.00	0.00	0	0	0	0	37.5000	0	0	0	0
3017	127.13	-2.16	36.10	-24.41	1.0100	203.40	1	127.13	127.13	0.00	0.00	0.00	0.00	0.00	0.00	0	0	0	0	169.5000	0	0	0	0
3020	112.50	2.73	31.95	-21.60	1.0300	180.00	1	112.50	112.50	0.00	0.00	0.00	0.00	0.00	0.00	0	0	0	0	150.0000	0	0	0	0
3028	150.00	17.21	42.60	-28.80	1.0400	240.00	1	150.00	150.00	0.00	0.00	0.00	0.00	0.00	0.00	0	0	0	0	200.0000	0	0	0	0
3034	97.87	17.00	27.80	-18.79	1.0300	156.60	1	97.87	97.87	0.00	0.00	0.00	0.00	0.00	0.00	0	0	0	0	130.5000	0	0	0	0
3039	156.75	34.66	44.52	-30.10	1.0400	250.80	1	156.75	156.75	0.00	0.00	0.00	0.00	0.00	0.00	0	0	0	0	209.0000	0	0	0	0
3043	0.00	0.00	0.66	-0.14	1.0400	1.56	0	1.30	0.39	0.00	0.00	0.00	0.00	0.00	0.00	0	0	0	0	1.3000	0	0	0	0
3044	0.00	0.00	45.50	-9.92	1.0400	107.28	0	89.40	26.82	0.00	0.00	0.00	0.00	0.00	0.00	0	0	0	0	89.4000	0	0	0	0
3045	0.00	0.00	227.52	-49.62	1.0400	536.40	0	447.00	134.10	0.00	0.00	0.00	0.00	0.00	0.00	0	0	0	0	447.0000	0	0	0	0
3048	180.75	-34.70	51.33	-34.70	1.0400	289.20	1	180.75	180.75	0.00	0.00	0.00	0.00	0.00	0.00	0	0	0	0	241.0000	0	0	0	0
3055	183.88	31.56	52.22	-35.30	1.0400	294.20	1	183.88	183.88	0.00	0.00	0.00	0.00	0.00	0.00	0	0	0	0	245.1700	0	0	0	0
3056	183.88	21.89	52.22	-35.30	1.0400	294.20	1	183.88	183.88	0.00	0.00	0.00	0.00	0.00	0.00	0	0	0	0	245.1700	0	0	0	0
3057	183.88	20.21	52.22	-35.30	1.0400	294.20	1	183.88	183.88	0.00	0.00	0.00	0.00	0.00	0.00	0	0	0	0	245.1700	0	0	0	0
3060	124.22	11.60	35.28	-23.85	1.0400	198.75	1	124.22	124.22	0.00	0.00	0.00	0.00	0.00	0.00	0	0	0	0	165.6300	0	0	0	0
3061	124.22	11.73	35.28	-23.85	1.0400	198.75	1	124.22	124.22	0.00	0.00	0.00	0.00	0.00	0.00	0	0	0	0	165.6300	0	0	0	0
3062	124.22	15.10	35.28	-23.85	1.0400	198.75	1	124.22	124.22	0.00	0.00	0.00	0.00	0.00	0.00	0	0	0	0	165.6300	0	0	0	0
3063	124.22	11.80	35.28	-23.85	1.0400	198.75	1	124.22	124.22	0.00	0.00	0.00	0.00	0.00	0.00	0	0	0	0	165.6300	0	0	0	0
3065	60.37	-11.59	17.15	-11.59	1.0000	96.60	1	60.37	60.37	0.00	0.00	0.00	0.00	0.00	0.00	0	0	0	0	80.5000	0	0	0	0
3068	112.50	21.22	31.95	-21.60	1.0400	180.00	1	112.50	112.50	0.00	0.00	0.00	0.00	0.00	0.00	0	0	0	0	150.0000	0	0	0	0
3071	127.65	-24.51	36.25	-24.51	1.0000	204.24	1	127.65	127.65	0.00	0.00	0.00	0.00	0.00	0.00	0	0	0	0	170.2000	0	0	0	0
3074	74.85	-12.94	21.26	-14.37	1.0000	119.76	1	74.85	74.85	0.00	0.00	0.00	0.00	0.00	0.00	0	0	0	0	99.8000	0	0	0	0
3081	186.75	26.64	53.04	-35.86	1.0400	298.80	1	186.75	186.75	0.00	0.00	0.00	0.00	0.00	0.00	0	0	0	0	249.0000	0	0	0	0
3084	174.37	-12.68	49.52	-33.48	1.0000	279.00	1	174.37	174.37	0.00	0.00	0.00	0.00	0.00	0.00	0	0	0	0	232.5000	0	0	0	0
3086	56.25	-1.01	15.97	-10.80	1.0000	90.00	1	56.25	56.25	0.00	0.00	0.00	0.00	0.00	0.00	0	0	0	0	75.0000	0	0	0	0
3087	0.00	0.00	15.97	-10.80	1.0000	90.00	0	75.00	22.50	0.00	0.00	0.00	0.00	0.00	0.00	0	0	0	0	75.0000	0	0	0	0
3092	150.00	18.47	42.60	-28.80	1.0400	240.00	1	150.00	150.00	0.00	0.00	0.00	0.00	0.00	0.00	0	0	0	0	200.0000	0	0	0	0
3095	90.45	16.33	25.69	-17.37	1.0400	144.72	1	90.45	90.45	0.00	0.00	0.00	0.00	0.00	0.00	0	0	0	0	120.6000	0	0	0	0
3098	120.00	20.90	34.08	-23.04	1.0400	192.00	1	120.00	120.00	0.00	0.00	0.00	0.00	0.00	0.00	0	0	0	0	160.0000	0	0	0	0
3105	0.00	0.00	17.07	-0.74	1.0000	46.72	0	44.50	0.00	0.00	0.00	0.00	0.00	0.00	0.00	0	0	0	0	15.0000	0	0	0	0
3106	0.00	0.00	62.48	-2.69	1.0000	170.94	0	162.80	0.00	0.00	0.00	0.00	0.00	0.00	0.00	0	0	0	0	54.9000	0	0	0	0
3110	63.00	13.73	17.89	-12.10	1.0400	100.80	1	63.00	63.00	0.00	0.00	0.00	0.00	0.00	0.00	0	0	0	0	84.0000	0	0	0	0
3112	56.10	-2.36	15.93	-10.77	1.0000	89.76	1	56.10	56.10	0.00	0.00	0.00	0.00	0.00	0.00	0	0	0	0	74.8000	0	0	0	0
3113	56.10	-1.67	15.93	-10.77	1.0000	89.76	1	56.10	56.10	0.00	0.00	0.00	0.00	0.00	0.00	0	0	0	0	74.8000	0	0	0	0
3117	47.25	-5.13	13.42	-9.07	1.0000	75.60	1	47.25	47.25	0.00	0.00	0.00	0.00	0.00	0.00	0	0	0	0	63.0000	0	0	0	0
3118	90.00	-8.59	25.56	-17.28	1.0000	144.00	1	90.00	90.00	0.00	0.00	0.00	0.00	0.00	0.00	0	0	0	0	120.0000	0	0	0	0
3120	29.70	0.00	0.00	0.00	1.0000	47.52	1	29.70	29.70	0.00	0.00	0.00	0.00	0.00	0.00	0	0	0	0	39.6000	0	0	0	0
3122	147.75	-14.51	41.96	-28.37	1.0000	236.40	1	147.75	147.75	0.00	0.00	0.00	0.00	0.00	0.00	0	0	0	0	197.0000	0	0	0	0
3127	101.25	-19.44	28.76	-19.44	1.0000	162.00	1	101.25	101.25	0.00	0.00	0.00	0.00	0.00	0.00	0	0	0	0	135.0000	0	0	0	0
3129	94.88	-18.22	26.94	-18.22	1.0000	151.80	1	94.88	94.88	0.00	0.00	0.00	0.00	0.00	0.00	0	0	0	0	126.5000	0	0	0	0
3131	85.50	3.13	24.28	-16.42	1.0200	136.80	1	85.50	85.50	0.00	0.00	0.00	0.00	0.00	0.00	0	0	0	0	114.0000	0	0	0	0
3133	0.00	0.00	26.11	-5.69	1.0400	61.56	0	51.30	15.39	0.00	0.00	0.00	0.00	0.00	0.00	0	0	0	0	51.3000	0	0	0	0
3133	0.00	0.00	26.11	-5.69	1.0400	61.56	0	51.30	15.39	0.00	0.00	0.00	0.00	0.00	0.00	0	0	0	0	51.3000	0	0	0	0
3133	0.00	0.00	26.11	-5.69	1.0400	61.56	0	51.30	15.39	0.00	0.00	0.00	0.00	0.00	0.00	0	0	0	0	51.3000	0	0	0	0
3137	75.90	21.56	21.56	-14.57	1.0300	121.44	1	75.90	75.90	0.00	0.00	0.00	0.00	0.00	0.00	0	0	0	0	101.2000	0	0	0	0
3141	68.62	-13.18	19.49	-13.18	1.0000	109.80	1	68.62	68.62	0.00	0.00	0.00	0.00	0.00	0.00	0	0	0	0	91.5000	0	0	0	0
4010	151.20	1.48	42.94	-29.03	1.0300	241.92	1	151.20	151.20	0.00	0.00	0.00	0.00	0.00	0.00	0	0	0	0	201.6000	0	0	0	0
4026	323.77	14.58	191.06	-50.02	1.0300	492.00	1	410.00	123.00	0.00	0.00	0.00	0.00	0.00	0.00	0	0	0	0	410.0000	0	0	0	0
4030	430.46	-75.93	290.04	-75.93	1.0100	746.88	1	622.40	186.72	0.00	0.00	0.00	0.00	0.00	0.00	0	0	0	0	622.4000	0	0	0	0
4045	0.00	0.00	35.86	-1.54	1.0200	98.07	0	93.40	0.00	0.00	0.00	0.00	0.00	0.00	0.00	0	0	0	0	31.5000	0	0	0	0
4046	0.00	0.00	10.94	-0.47	1.0200	29.92	0	28.50	0.00	0.00	0.00	0.00	0.00	0.00	0.00	0	0	0	0	9.6000	0	0	0	0
4047	0.00	0.00	75.10	-3.23	1.0200	205.49	0	195.70	0.00	0.00	0.00	0.00	0.00	0.00	0.00	0	0	0	0	66.0000	0	0	0	0
4050	150.00	-28.80	42.60	-28.80	1.0000	240.00	1	150.00	150.00	0.00	0.00	0.00	0.00	0.00	0.00	0	0	0	0	200.0000	0	0	0	0
4052	34.90	19.81	22.50	-4.91	1.0400	53.04	1	44.20	13.26	0.00	0.00	0.00	0.00	0.00	0.00	0	0	0	0	44.2000	0	0	0	0
4058	133.76	10.06	73.30	-15.98	1.0300	172.80	1	144.00	43.20	0.00	0.00	0.00	0.00	0.00	0.00	0	0	0	0	144.0000	0	0	0	0
4059	133.76	8.58	73.30	-15.98	1.0300	172.80	1	144.00	43.20	0.00	0.00	0.00	0.00	0.00	0.00	0	0	0	0	144.0000	0	0	0	0
4060	133.76	9.46	73.30	-15.98	1.0300	172.80	1	144.00	43.20	0.00	0.00	0.00	0.00	0.00	0.00	0	0	0	0	144.0000	0	0	0	0
4061	0.00	0.00	87.72	-19.13	1.0300	206.80	0	172.33	51.70	0.00	0.00	0.00	0.00	0.00	0.00	0	0	0	0	172.3300	0	0	0	0
4062	0.00	0.00	87.72	-19.13	1.0300	206.80	0	172.33	51.70	0.00	0.00	0.00	0.00	0.00	0.00	0	0	0	0	172.3300	0	0	0	0
4063	0.00	0.00	87.72	-19.13	1.0300	206.80	0	172.33	51.70	0.00	0.00	0.00	0.00	0.00	0.00	0	0	0	0	172.3300	0	0	0	0
4065	37.11	5.74	23.92	-5.22	1.0200	56.40	1	47.00	14.10	0.00	0.00	0.00	0.00	0.00	0.00	0	0	0	0	47.0000	0	0	0	0
4075	0.00	0.00	89.75	-19.57	1.0300	211.60	0	176.33	52.90	0.00	0.00	0.00	0.00	0.00	0.00	0	0	0	0	176.3300	0	0	0	0
4076	163.79	7.34	89.75	-19.57	1.0300	211.60	1	176.33	52.90	0.00	0.00	0.00	0.00	0.00	0.00	0	0	0	0	176.3300	0	0	0	0
4077	0.00	0.00	89.75	-19.57	1.0300	211.60	0	176.33	52.90	0.00	0.00	0.00	0.00	0.00	0.00	0	0	0	0	176.3300	0	0	0	0
4082	226.10	20.57	123.89	-27.02	1.0400	292.08	1	243.40	73.02	0.00	0.00	0.00	0.00	0.00	0.00	0	0	0	0	243.4000	0	0	0	0
4083	226.10	20.83	123.89	-27.02	1.0400	292.08	1	243.40	73.02	0.00	0.00	0.00	0.00	0.00	0.00	0	0	0	0	243.4000	0	0	0	0
4084	0.00	0.00	123.89	-27.02	1.0400	292.08	0	243.40	73.02	0.00	0.00	0.00	0.00	0.00	0.00	0	0	0	0	243.4000	0	0	0	0
4085	0.00	0.00	179.17	-39.07	1.0400	422.40	0	352.00	105.60	0.00	0.00	0.00	0.00	0.00	0.00	0	0	0	0	352.0000	0	0	0	0
4090	0.00	0.00	0.65	-0.17	1.0100	1.68	0	1.40	0.42	0.00	0.00	0.00	0.00	0.00	0.00	0	0	0	0	1.4000	0	0	0	0
4091	0.00	0.00	10.95	-2.87	1.0100	28.20	0	23.50	7.05	0.00	0.00	0.00	0.00	0.00	0.00	0	0	0	0	23.5000	0	0	0	0
4092	0.00	0.00	3.54	-0.93	1.0100	9.12	0	7.60	2.28	0.00	0.00	0.00	0.00	0.00	0.00	0	0	0	0	7.6000	0	0	0	0
4093	0.00	0.00	13.05	-3.42	1.0100	33.60	0	28.00	8.40	0.00	0.00	0.00	0.00	0.00	0.00	0	0	0	0	28.0000	0	0	0	0
4094	26.01	-3.42	13.05	-3.42	1.0100	33.60	1	28.00	8.40	0.00	0.00	0.00	0.00	0.00	0.00	0	0	0	0	28.0000	0	0	0	0
4095	26.01	-2.90	13.05	-3.42	1.0100	33.60	1	28.00	8.40	0.00	0.00	0.00	0.00	0.00	0.00	0	0	0	0	28.0000	0	0	0	0
4096	0.00	0.00	13.05	-3.42	1.0100	33.60	0	28.00	8.40	0.00	0.00	0.00	0.00	0.00	0.00	0	0	0	0	28.0000	0	0	0	0
4097	0.00	0.00	13.05	-3.42	1.0100	33.60	0	28.00	8.40	0.00	0.00	0.00	0.00	0.00	0.00	0	0	0	0	28.0000	0	0	0	0
4098	0.00	0.00	13.05	-3.42	1.0100	33.60	0	28.00	8.40	0.00	0.00	0.00	0.00	0.00	0.00	0	0	0	0	28.0000	0	0	0	0
4105	135.00	-0.79	38.34	-25.92	1.0100	216.00	1	135.00	135.00	0.00	0.00	0.00	0.00	0.00	0.00	0	0	0	0	180.0000	0	0	0	0
4115	122.43	21.13	67.09	-14.63	1.0400	158.16	1	131.80	39.54	0.00	0.00	0.00	0.00	0.00	0.00	0	0	0	0	131.8000	0	0	0	0
4116	0.00	0.00	67.09	-14.63	1.0400	158.16	0	131.80	39.54	0.00	0.00	0.00	0.00	0.00	0.00	0	0	0	0	131.8000	0	0	0	0
4133	0.00	0.00	17.10	-3.73	1.0000	40.32	0	33.60	10.08	0.00	0.00	0.00	0.00	0.00	0.00	0	0	0	0	33.6000	0	0	0	0
4134	0.00	0.00	17.10	-3.73	1.0000	40.32	0	33.60	10.08	0.00	0.00	0.00	0.00	0.00	0.00	0	0	0	0	33.6000	0	0	0	0
4135	0.00	0.00	17.10	-3.73	1.0000	40.32	0	33.60	10.08	0.00	0.00	0.00	0.00	0.00	0.00	0	0	0	0	33.6000	0	0	0	0
4136	0.00	0.00	17.10	-3.73	1.0000	40.32	0	33.60	10.08	0.00	0.00	0.00	0.00	0.00	0.00	0	0	0	0	33.6000	0	0	0	0
4137	0.00	0.00	34.20	-7.46	1.0000	80.64	0	67.20	20.16	0.00	0.00	0.00	0.00	0.00	0.00	0	0	0	0	67.2000	0	0	0	0
4138	0.00	0.00	33.59	-7.33	1.0000	79.20	0	66.00	19.80	0.00	0.00	0.00	0.00	0.00	0.00	0	0	0	0	66.0000	0	0	0	0
4142	141.00	11.34	40.04	-27.07	1.0400	225.60	1	141.00	141.00	0.00	0.00	0.00	0.00	0.00	0.00	0	0	0	0	188.0000	0	0	0	0
4153	212.40	24.13	60.32	-40.78	1.0400	339.84	1	212.40	212.40	0.00	0.00	0.00	0.00	0.00	0.00	0	0	0	0	283.2000	0	0	0	0
4160	183.71	32.71	100.66	-21.95	1.0300	237.32	1	197.77	59.33	0.00	0.00	0.00	0.00	0.00	0.00	0	0	0	0	197.7700	0	0	0	0
4161	183.71	20.22	100.66	-21.95	1.0300	237.32	1	197.77	59.33	0.00	0.00	0.00	0.00	0.00	0.00	0	0	0	0	197.7700	0	0	0	0
4162	0.00	0.00	100.66	-21.95	1.0300	237.32	0	197.77	59.33	0.00	0.00	0.00	0.00	0.00	0.00	0	0	0	0	197.7700	0	0	0	0
4163	0.00	0.00	4.58	-1.00	1.0300	10.80	0	9.00	2.70	0.00	0.00	0.00	0.00	0.00	0.00	0	0	0	0	9.0000	0	0	0	0
4166	150.75	-28.94	42.81	-28.94	1.0000	241.20	1	150.75	150.75	0.00	0.00	0.00	0.00	0.00	0.00	0	0	0	0	201.0000	0	0	0	0
4177	112.50	-0.55	31.95	-21.60	1.0400	180.00	1	112.50	112.50	0.00	0.00	0.00	0.00	0.00	0.00	0	0	0	0	150.0000	0	0	0	0
4181	150.07	42.62	42.62	-28.81	1.0400	240.12	1	150.07	150.07	0.00	0.00	0.00	0.00	0.00	0.00	0	0	0	0	200.1000	0	0	0	0
4183	152.25	43.24	43.24	-29.23	1.0300	243.60	1	152.25	152.25	0.00	0.00	0.00	0.00	0.00	0.00	0	0	0	0	203.0000	0	0	0	0
4192	0.00	0.00	38.17	-8.33	1.0200	90.00	0	75.00	22.50	0.00	0.00	0.00	0.00	0.00	0.00	0	0	0	0	75.0000	0	0	0	0
4192	0.00	0.00	93.54	-20.40	1.0200	220.52	0	183.77	55.13	0.00	0.00	0.00	0.00	0.00	0.00	0	0	0	0	183.7700	0	0	0	0
4192	0.00	0.00	12.22	-2.66	1.0200	28.80	0	24.00	7.20	0.00	0.00	0.00	0.00	0.00	0.00	0	0	0	0	24.0000	0	0	0	0
4192	0.00	0.00	31.05	-6.77	1.0200	73.20	0	61.00	18.30	0.00	0.00	0.00	0.00	0.00	0.00	0	0	0	0	61.0000	0	0	0	0
4192	0.00	0.00	5.29	-1.15	1.0200	12.48	0	10.40	3.12	0.00	0.00	0.00	0.00	0.00	0.00	0	0	0	0	10.4000	0	0	0	0
4192	248.02	17.10	135.90	-29.64	1.0200	320.40	1	267.00	80.10	0.00	0.00	0.00	0.00	0.00	0.00	0	0	0	0	267.0000	0	0	0	0
4192	248.02	17.10	135.90	-29.64	1.0200	320.40	1	267.00	80.10	0.00	0.00	0.00	0.00	0.00	0.00	0	0	0	0	267.0000	0	0	0	0
4192	0.00	0.00	135.90	-29.64	1.0200	320.40	0	267.00	80.10	0.00	0.00	0.00	0.00	0.00	0.00	0	0	0	0	267.0000	0	0	0	0
4192	0.00	0.00	93.54	-20.40	1.0200	220.52	0	183.77	55.13	0.00	0.00	0.00	0.00	0.00	0.00	0	0	0	0	183.7700	0	0	0	0
4192	0.00	0.00	93.54	-20.40	1.0200	220.52	0	183.77	55.13	0.00	0.00	0.00	0.00	0.00	0.00	0	0	0	0	183.7700	0	0	0	0
4194	151.20	37.31	42.94	-29.03	1.0200	241.92	1	151.20	151.20	0.00	0.00	0.00	0.00	0.00	0.00	0	0	0	0	201.6000	0	0	0	0
4195	69.00	-13.25	19.60	-13.25	1.0000	110.40	1	69.00	69.00	0.00	0.00	0.00	0.00	0.00	0.00	0	0	0	0	92.0000	0	0	0	0
5020	90.00	-17.28	25.56	-17.28	1.0000	144.00	1	90.00	90.00	0.00	0.00	0.00	0.00	0.00	0.00	0	0	0	0	120.0000	0	0	0	0
5023	0.00	0.00	2.44	-0.53	1.0400	5.76	0	4.80	1.44	0.00	0.00	0.00	0.00	0.00	0.00	0	0	0	0	4.8000	0	0	0	0
5035	0.00	0.00	2.14	-0.47	1.0200	5.04	0	4.20	1.26	0.00	0.00	0.00	0.00	0.00	0.00	0	0	0	0	4.2000	0	0	0	0
5036	0.00	0.00	3.26	-0.71	1.0200	7.68	0	6.40	1.92	0.00	0.00	0.00	0.00	0.00	0.00	0	0	0	0	6.4000	0	0	0	0
5037	0.00	0.00	157.01	-34.24	1.0200	370.16	0	308.47	92.54	0.00	0.00	0.00	0.00	0.00	0.00	0	0	0	0	308.4700	0	0	0	0
5038	286.54	-32.63	157.01	-34.24	1.0200	370.16	1	308.47	92.54	0.00	0.00	0.00	0.00	0.00	0.00	0	0	0	0	308.4700	0	0	0	0
5039	286.54	-34.24	157.01	-34.24	1.0200	370.16	1	308.47	92.54	0.00	0.00	0.00	0.00	0.00	0.00	0	0	0	0	308.4700	0	0	0	0
5040	0.00	0.00	157.01	-34.24	1.0200	370.16	0	308.47	92.54	0.00	0.00	0.00	0.00	0.00	0.00	0	0	0	0	308.4700	0	0	0	0
5041	0.00	0.00	157.01	-34.24	1.0200	370.16	0	308.47	92.54	0.00	0.00	0.00	0.00	0.00	0.00	0	0	0	0	308.4700	0	0	0	0
5042	0.00	0.00	157.01	-34.24	1.0200	370.16	0	308.47	92.54	0.00	0.00	0.00	0.00	0.00	0.00	0	0	0	0	308.4700	0	0	0	0
5051	0.00	0.00	43.11	-9.40	1.0200	101.64	0	84.70	25.41	0.00	0.00	0.00	0.00	0.00	0.00	0	0	0	0	84.7000	0	0	0	0
5057	0.00	0.00	161.53	-35.23	1.0000	380.82	0	317.35	95.20	0.00	0.00	0.00	0.00	0.00	0.00	0	0	0	0	317.3500	0	0	0	0
5058	250.60	-35.23	161.53	-35.23	1.0000	380.82	1	317.35	95.20	0.00	0.00	0.00	0.00	0.00	0.00	0	0	0	0	317.3500	0	0	0	0
5065	0.00	0.00	5.40	-1.18	1.0300	12.72	0	10.60	3.18	0.00	0.00	0.00	0.00	0.00	0.00	0	0	0	0	10.6000	0	0	0	0
5066	0.00	0.00	0.92	-0.20	1.0300	2.16	0	1.80	0.54	0.00	0.00	0.00	0.00	0.00	0.00	0	0	0	0	1.8000	0	0	0	0
5067	407.11	39.87	223.08	-48.65	1.0300	525.92	1	438.27	131.48	0.00	0.00	0.00	0.00	0.00	0.00	0	0	0	0	438.2700	0	0	0	0
5068	0.00	0.00	223.08	-48.65	1.0300	525.92	0	438.27	131.48	0.00	0.00	0.00	0.00	0.00	0.00	0	0	0	0	438.2700	0	0	0	0
5069	0.00	0.00	223.08	-48.65	1.0300	525.92	0	438.27	131.48	0.00	0.00	0.00	0.00	0.00	0.00	0	0	0	0	438.2700	0	0	0	0
5089	0.00	0.00	47.57	-2.05	1.0100	130.10	0	123.90	0.00	0.00	0.00	0.00	0.00	0.00	0.00	0	0	0	0	41.8000	0	0	0	0
...
];

%% generator cost data
mpc.gencost = [
2	0	0	4	0.0000	0.000	0.000	0.00
2	0	0	4	0.0000	0.000	0.000	0.00
2	0	0	4	0.0000	0.000	0.000	0.00
2	0	0	4	0.0000	0.000	0.000	0.00
2	0	0	4	0.0000	0.000	0.000	0.00
2	0	0	4	0.0000	0.000	0.000	0.00
2	0	0	4	0.0000	0.000	0.000	0.00
2	0	0	4	0.0000	0.000	0.000	0.00
2	0	0	4	0.0000	0.000	0.000	0.00
2	0	0	4	0.0000	0.000	0.000	0.00
2	0	0	4	0.0000	0.000	0.000	0.00
2	0	0	4	0.0000	0.000	0.000	0.00
2	0	0	4	0.0000	0.001	18.641	1087.80
2	0	0	4	0.0000	0.001	18.641	1087.80
2	0	0	4	0.0000	0.001	17.464	734.10
2	0	0	4	0.0000	0.001	17.464	734.10
2	0	0	4	0.0000	0.001	17.464	734.10
2	0	0	4	0.0000	0.001	17.910	868.20
2	0	0	4	0.0000	0.000	0.000	0.00
2	0	0	4	0.0000	0.001	17.046	608.40
2	0	0	4	0.0000	0.001	17.028	603.00
2	0	0	4	0.0000	0.000	0.000	0.00
2	0	0	4	0.0000	0.000	0.000	0.00
2	0	0	4	0.0000	0.000	0.000	0.00
2	0	0	4	0.0000	0.000	0.000	0.00
2	0	0	4	0.0000	0.001	17.977	888.20
2	0	0	4	0.0000	0.001	17.977	888.20
2	0	0	4	0.0000	0.001	17.977	888.20
2	0	0	4	0.0000	0.001	17.977	888.20
2	0	0	4	0.0000	0.001	17.977	888.20
2	0	0	4	0.0000	0.001	17.977	888.20
2	0	0	4	0.0000	0.001	17.495	743.25
2	0	0	4	0.0000	0.001	17.495	743.25
2	0	0	4	0.0000	0.001	17.495	743.25
2	0	0	4	0.0000	0.001	18.448	1029.75
2	0	0	4	0.0000	0.000	0.000	0.00
2	0	0	4	0.0000	0.000	0.000	0.00
2	0	0	4	0.0000	0.000	0.000	0.00
2	0	0	4	0.0000	0.000	0.000	0.00
2	0	0	4	0.0000	0.000	0.000	0.00
2	0	0	4	0.0000	0.002	27.494	1187.70
2	0	0	4	0.0000	0.002	27.494	1187.70
2	0	0	4	0.0000	0.002	27.494	1187.70
2	0	0	4	0.0000	0.000	0.000	0.00
2	0	0	4	0.0000	0.000	0.000	0.00
2	0	0	4	0.0000	0.001	16.989	724.99
2	0	0	4	0.0000	0.001	17.394	850.01
2	0	0	4	0.0000	0.000	0.000	0.00
2	0	0	4	0.0000	0.002	17.268	236.16
2	0	0	4	0.0000	0.002	17.268	1398.51
2	0	0	4	0.0000	0.000	0.000	0.00
2	0	0	4	0.0000	0.000	0.000	0.00
2	0	0	4	0.0000	0.000	0.000	0.00
2	0	0	4	0.0000	0.000	0.000	0.00
2	0	0	4	0.0000	0.000	0.000	0.00
2	0	0	4	0.0000	0.001	16.033	630.00
2	0	0	4	0.0000	0.001	16.033	630.00
2	0	0	4	0.0000	0.001	16.126	660.00
2	0	0	4	0.0000	0.000	0.000	0.00
2	0	0	4	0.0000	0.000	0.000	0.00
2	0	0	4	0.0000	0.000	0.000	0.00
2	0	0	4	0.0000	0.000	0.000	0.00
2	0	0	4	0.0000	0.000	0.000	0.00
2	0	0	4	0.0000	0.002	26.597	1001.59
2	0	0	4	0.0000	0.002	26.597	1001.59
2	0	0	4	0.0000	0.002	26.597	1001.59
2	0	0	4	0.0000	0.001	17.482	877.08
2	0	0	4	0.0000	0.001	17.482	877.08
2	0	0	4	0.0000	0.001	17.482	877.08
2	0	0	4	0.0000	0.001	17.482	877.08
2	0	0	4	0.0000	0.001	17.482	877.08
2	0	0	4	0.0000	0.001	17.482	877.08
2	0	0	4	0.0000	0.000	0.000	0.00
2	0	0	4	0.0000	0.000	0.000	0.00
2	0	0	4	0.0000	0.000	0.000	0.00
2	0	0	4	0.0000	0.000	0.000	0.00
2	0	0	4	0.0000	0.000	0.000	0.00
2	0	0	4	0.0000	0.000	0.000	0.00
2	0	0	4	0.0000	0.000	0.000	0.00
2	0	0	4	0.0000	0.000	0.000	0.00
2	0	0	4	0.0000	0.002	19.197	601.95
2	0	0	4	0.0000	0.002	19.693	734.10
2	0	0	4	0.0000	0.002	21.704	1365.86
2	0	0	4	0.0000	0.000	0.000	0.00
2	0	0	4	0.0000	0.000	0.000	0.00
2	0	0	4	0.0000	0.000	0.000	0.00
2	0	0	4	0.0000	0.000	0.000	0.00
2	0	0	4	0.0000	0.000	0.000	0.00
2	0	0	4	0.0000	0.000	0.000	0.00
2	0	0	4	0.0000	0.000	0.000	0.00
2	0	0	4	0.0000	0.000	0.000	0.00
2	0	0	4	0.0000	0.000	0.000	0.00
2	0	0	4	0.0000	0.000	0.000	0.00
2	0	0	4	0.0000	0.000	0.000	0.00
2	0	0	4	0.0000	0.000	0.000	0.00
2	0	0	4	0.0000	0.000	0.000	0.00
2	0	0	4	0.0000	0.000	0.000	0.00
2	0	0	4	0.0000	0.000	0.000	0.00
2	0	0	4	0.0000	0.000	0.000	0.00
2	0	0	4	0.0000	0.000	0.000	0.00
2	0	0	4	0.0000	0.000	0.000	0.00
2	0	0	4	0.0000	0.000	0.000	0.00
2	0	0	4	0.0000	0.000	0.000	0.00
2	0	0	4	0.0000	0.000	0.000	0.00
2	0	0	4	0.0000	0.000	0.000	0.00
2	0	0	4	0.0000	0.000	0.000	0.00
2	0	0	4	0.0000	0.000	0.000	0.00
2	0	0	4	0.0000	0.000	0.000	0.00
2	0	0	4	0.0000	0.000	0.000	0.00
2	0	0	4	0.0000	0.000	0.000	0.00
2	0	0	4	0.0000	0.000	0.000	0.00
2	0	0	4	0.0000	0.000	0.000	0.00
2	0	0	4	0.0000	0.000	0.000	0.00
2	0	0	4	0.0000	0.000	0.000	0.00
2	0	0	4	0.0000	0.002	19.478	676.95
2	0	0	4	0.0000	0.002	19.478	676.95
2	0	0	4	0.0000	0.002	19.478	676.95
2	0	0	4	0.0000	0.000	0.000	0.00
2	0	0	4	0.0000	0.000	0.000	0.00
2	0	0	4	0.0000	0.000	0.000	0.00
2	0	0	4	0.0000	0.002	17.172	1243.08
2	0	0	4	0.0000	0.002	17.172	1349.57
2	0	0	4	0.0000	0.000	0.000	0.00
2	0	0	4	0.0000	0.000	0.000	0.00
2	0	0	4	0.0000	0.000	0.000	0.00
2	0	0	4	0.0000	0.000	0.000	0.00
2	0	0	4	0.0000	0.001	16.730	666.30
2	0	0	4	0.0000	0.001	17.213	816.00
2	0	0	4	0.0000	0.001	17.213	816.00
2	0	0	4	0.0000	0.001	17.213	816.00
2	0	0	4	0.0000	0.001	17.350	858.49
2	0	0	4	0.0000	0.001	17.350	858.49
2	0	0	4	0.0000	0.001	17.350	858.49
2	0	0	4	0.0000	0.001	16.743	670.50
2	0	0	4	0.0000	0.002	29.085	864.49
2	0	0	4	0.0000	0.002	29.085	864.49
2	0	0	4	0.0000	0.002	29.085	864.49
2	0	0	4	0.0000	0.001	17.694	965.10
2	0	0	4	0.0000	0.001	17.694	965.10
2	0	0	4	0.0000	0.001	17.694	965.10
2	0	0	4	0.0000	0.001	18.220	1128.00
2	0	0	4	0.0000	0.002	17.172	236.04
2	0	0	4	0.0000	0.002	17.172	236.63
2	0	0	4	0.0000	0.002	17.172	236.20
2	0	0	4	0.0000	0.002	17.172	236.75
2	0	0	4	0.0000	0.002	17.172	236.75
2	0	0	4	0.0000	0.002	17.172	236.75
2	0	0	4	0.0000	0.002	17.172	236.75
2	0	0	4	0.0000	0.002	17.172	236.75
2	0	0	4	0.0000	0.002	17.172	236.75
2	0	0	4	0.0000	0.000	0.000	0.00
2	0	0	4	0.0000	0.002	28.724	797.70
2	0	0	4	0.0000	0.002	28.724	797.70
2	0	0	4	0.0000	0.002	27.928	650.40
2	0	0	4	0.0000	0.002	27.928	650.40
2	0	0	4	0.0000	0.002	27.928	650.40
2	0	0	4	0.0000	0.002	27.928	650.40
2	0	0	4	0.0000	0.002	28.200	700.80
2	0	0	4	0.0000	0.002	28.190	699.00
2	0	0	4	0.0000	0.000	0.000	0.00
2	0	0	4	0.0000	0.000	0.000	0.00
2	0	0	4	0.0000	0.001	17.473	896.66
2	0	0	4	0.0000	0.001	17.473	896.66
2	0	0	4	0.0000	0.001	17.473	896.66
2	0	0	4	0.0000	0.001	16.559	613.50
2	0	0	4	0.0000	0.000	0.000	0.00
2	0	0	4	0.0000	0.000	0.000	0.00
2	0	0	4	0.0000	0.000	0.000	0.00
2	0	0	4	0.0000	0.000	0.000	0.00
2	0	0	4	0.0000	0.001	16.879	712.50
2	0	0	4	0.0000	0.001	17.405	875.66
2	0	0	4	0.0000	0.001	16.632	636.00
2	0	0	4	0.0000	0.001	16.811	691.50
2	0	0	4	0.0000	0.001	16.566	615.60
2	0	0	4	0.0000	0.001	17.808	1000.50
2	0	0	4	0.0000	0.001	17.808	1000.50
2	0	0	4	0.0000	0.001	17.808	1000.50
2	0	0	4	0.0000	0.001	17.405	875.66
2	0	0	4	0.0000	0.001	17.405	875.66
2	0	0	4	0.0000	0.000	0.000	0.00
2	0	0	4	0.0000	0.000	0.000	0.00
2	0	0	4	0.0000	0.000	0.000	0.00
2	0	0	4	0.0000	0.001	15.962	607.20
2	0	0	4	0.0000	0.001	15.177	606.30
2	0	0	4	0.0000	0.001	15.186	609.60
2	0	0	4	0.0000	0.001	16.529	1062.70
2	0	0	4	0.0000	0.001	16.529	1062.70
2	0	0	4	0.0000	0.001	16.529	1062.70
2	0	0	4	0.0000	0.001	16.529	1062.70
2	0	0	4	0.0000	0.001	16.529	1062.70
2	0	0	4	0.0000	0.001	16.529	1062.70
2	0	0	4	0.0000	0.001	16.996	727.05
2	0	0	4	0.0000	0.001	17.435	1076.03
2	0	0	4	0.0000	0.001	17.422	1076.03
2	0	0	4	0.0000	0.001	15.989	615.90
2	0	0	4	0.0000	0.001	15.948	602.70
2	0	0	4	0.0000	0.001	17.987	1223.61
2	0	0	4	0.0000	0.001	17.987	1223.61
2	0	0	4	0.0000	0.001	17.987	1223.61
2	0	0	4	0.0000	0.000	0.000	0.00
...
];

%% branch data
mpc.branch = [
1001	1064	0.005240	0.035800	0.00609	221.00	0.00	0.00	0.00000	0.000	1	0.00	0.00	20.55	10.93	-20.52	-11.33	0	0	0	0
1001	1064	0.005240	0.035800	0.00609	221.00	0.00	0.00	0.00000	0.000	1	0.00	0.00	20.55	10.93	-20.52	-11.33	0	0	0	0
1001	1071	0.004350	0.028080	0.00536	221.00	0.00	0.00	0.00000	0.000	1	0.00	0.00	-26.26	-13.87	26.30	13.58	0	0	0	0
1001	1071	0.004350	0.028080	0.00536	221.00	0.00	0.00	0.00000	0.000	1	0.00	0.00	-26.26	-13.87	26.30	13.58	0	0	0	0
1002	1007	0.077760	0.466930	0.06336	98.00	0.00	0.00	0.00000	0.000	1	0.00	0.00	5.31	-5.28	-5.28	-1.26	0	0	0	0
1010	1002	0.055520	0.135700	0.01777	98.00	0.00	0.00	0.00000	0.000	1	0.00	0.00	13.89	-2.54	-13.78	0.91	0	0	0	0
1004	1003	0.004500	0.115820	0.00000	250.00	0.00	0.00	1.00000	0.000	1	0.00	0.00	-36.18	7.17	36.24	-5.65	0	0	0	0
1022	1003	0.004850	0.020120	0.00341	221.00	0.00	0.00	0.00000	0.000	1	0.00	0.00	54.19	-2.77	-54.05	2.99	0	0	0	0
1055	1003	0.015740	0.037820	0.00513	98.00	0.00	0.00	0.00000	0.000	1	0.00	0.00	-17.77	-3.06	17.82	2.65	0	0	0	0
1004	3133	0.004200	0.030000	0.05500	523.00	0.00	0.00	0.00000	0.000	1	0.00	0.00	194.43	-37.55	-192.85	43.13	0	0	0	0
1006	1005	0.006020	0.147070	0.00000	42.00	0.00	0.00	1.00000	0.000	1	0.00	0.00	25.73	-4.94	-25.69	5.94	0	0	0	0
1025	1005	0.018420	0.082100	0.01204	149.00	0.00	0.00	0.00000	0.000	1	0.00	0.00	17.19	9.55	-17.12	-10.47	0	0	0	0
1005	1061	0.005990	0.024840	0.00422	221.00	0.00	0.00	0.00000	0.000	1	0.00	0.00	92.57	-27.37	-92.02	29.21	0	0	0	0
1067	1005	0.017110	0.041810	0.00548	98.00	0.00	0.00	0.00000	0.000	1	0.00	0.00	50.35	-31.03	-49.76	31.91	0	0	0	0
1007	1015	0.062240	0.373750	0.05072	98.00	0.00	0.00	0.00000	0.000	1	0.00	0.00	-5.08	-2.56	5.10	-2.75	0	0	0	0
1031	1007	0.048030	0.274340	0.04123	98.00	0.00	0.00	0.00000	0.000	1	0.00	0.00	-6.49	-3.48	6.51	-0.75	0	0	0	0
1009	1008	0.004550	0.094710	0.00000	120.00	0.00	0.00	1.00000	0.000	1	0.00	0.00	61.87	-11.88	-61.69	15.54	0	0	0	0
1008	1032	0.045010	0.110020	0.01441	98.00	0.00	0.00	0.00000	0.000	1	0.00	0.00	68.53	-6.01	-66.50	9.48	0	0	0	0
1008	1069	0.008300	0.036280	0.00553	149.00	0.00	0.00	0.00000	0.000	1	0.00	0.00	-6.83	-9.53	6.84	8.99	0	0	0	0
1011	1010	0.007210	0.324600	0.00000	46.00	0.00	0.00	1.00000	0.000	1	0.00	0.00	10.00	0.00	-9.99	0.31	0	0	0	0
1010	1015	0.047030	0.282430	0.03833	98.00	0.00	0.00	0.00000	0.000	1	0.00	0.00	9.27	-4.45	-9.23	0.62	0	0	0	0
1010	1030	0.061600	0.369900	0.05020	98.00	0.00	0.00	0.00000	0.000	1	0.00	0.00	-13.16	1.49	13.27	-6.12	0	0	0	0
1012	1087	0.049340	0.204690	0.03473	149.00	0.00	0.00	0.00000	0.000	1	0.00	0.00	-71.74	17.30	74.34	-10.17	0	0	0	0
3051	1012	0.057100	0.249770	0.03804	149.00	0.00	0.00	0.00000	0.000	1	0.00	0.00	-67.39	16.12	70.09	-8.22	0	0	0	0
1013	1031	0.045090	0.270780	0.03675	98.00	0.00	0.00	0.00000	0.000	1	0.00	0.00	-1.40	-4.65	1.40	0.86	0	0	0	0
1047	1013	0.009470	0.061170	0.01167	221.00	0.00	0.00	0.00000	0.000	1	0.00	0.00	23.30	-9.15	-23.24	8.32	0	0	0	0
1086	1013	0.079000	0.193110	0.02529	98.00	0.00	0.00	0.00000	0.000	1	0.00	0.00	-8.42	9.66	8.56	-11.95	0	0	0	0
1014	1047	0.035660	0.147940	0.02510	149.00	0.00	0.00	0.00000	0.000	1	0.00	0.00	39.34	-5.39	-38.80	5.04	0	0	0	0
1014	1083	0.041050	0.182930	0.02682	149.00	0.00	0.00	0.00000	0.000	1	0.00	0.00	-40.56	4.76	41.23	-4.60	0	0	0	0
1016	1034	0.018280	0.109760	0.01489	98.00	0.00	0.00	0.00000	0.000	1	0.00	0.00	-5.08	13.83	5.12	-15.12	0	0	0	0
1068	1016	0.027730	0.158370	0.02380	98.00	0.00	0.00	0.00000	0.000	1	0.00	0.00	-3.40	-18.75	3.49	16.83	0	0	0	0
1018	1017	0.032270	0.078870	0.01033	98.00	0.00	0.00	0.00000	0.000	1	0.00	0.00	41.55	-7.35	-40.98	7.72	0	0	0	0
1017	1029	0.032440	0.141880	0.02161	149.00	0.00	0.00	0.00000	0.000	1	0.00	0.00	-2.52	-18.98	2.62	17.26	0	0	0	0
1037	1017	0.007520	0.033520	0.00491	221.00	0.00	0.00	0.00000	0.000	1	0.00	0.00	-109.72	7.87	110.66	-4.19	0	0	0	0
1047	1017	0.036000	0.156000	0.02400	150.00	0.00	0.00	0.00000	0.000	1	0.00	0.00	79.47	-3.06	-77.25	10.26	0	0	0	0
1024	1018	0.010940	0.065720	0.00892	98.00	0.00	0.00	0.00000	0.000	1	0.00	0.00	41.78	-7.05	-41.59	7.33	0	0	0	0
1019	1040	0.049780	0.206510	0.03504	149.00	0.00	0.00	0.00000	0.000	1	0.00	0.00	-37.05	14.08	37.83	-14.36	0	0	0	0
1019	1045	0.015220	0.037200	0.00487	221.00	0.00	0.00	0.00000	0.000	1	0.00	0.00	41.36	25.35	-41.01	-24.98	0	0	0	0
1019	1071	0.004400	0.028000	0.00540	225.00	0.00	0.00	0.00000	0.000	1	0.00	0.00	32.71	36.73	-32.61	-36.61	0	0	0	0
1071	1019	0.004400	0.028000	0.00540	225.00	0.00	0.00	0.00000	0.000	1	0.00	0.00	-32.61	-36.61	32.71	36.73	0	0	0	0
1019	1084	0.030000	0.160000	0.02500	220.00	0.00	0.00	0.00000	0.000	1	0.00	0.00	-103.72	16.15	106.95	-1.49	0	0	0	0
1021	1020	0.003270	0.078120	0.00000	250.00	0.00	0.00	1.00000	0.000	1	0.00	0.00	149.63	-28.73	-148.87	46.79	0	0	0	0
1025	1020	0.008280	0.034340	0.00583	149.00	0.00	0.00	0.00000	0.000	1	0.00	0.00	75.59	-31.63	-75.06	33.22	0	0	0	0
1084	1020	0.010560	0.063370	0.00860	221.00	0.00	0.00	0.00000	0.000	1	0.00	0.00	-53.24	14.54	53.54	-13.62	0	0	0	0
1020	3059	0.018900	0.060000	0.00600	300.00	0.00	0.00	0.00000	0.000	1	0.00	0.00	79.35	4.89	-78.22	-1.91	0	0	0	0
1020	3130	0.009960	0.069380	0.01134	221.00	0.00	0.00	0.00000	0.000	1	0.00	0.00	91.04	9.54	-90.24	-5.19	0	0	0	0
1023	1022	0.005350	0.117330	0.00000	250.00	0.00	0.00	1.00000	0.000	1	0.00	0.00	135.00	0.97	-134.04	20.00	0	0	0	0
1022	1028	0.014330	0.092530	0.01765	221.00	0.00	0.00	0.00000	0.000	1	0.00	0.00	39.93	-8.61	-39.70	8.28	0	0	0	0
1022	1028	0.014330	0.092530	0.01765	221.00	0.00	0.00	0.00000	0.000	1	0.00	0.00	39.93	-8.61	-39.70	8.28	0	0	0	0
1024	1090	0.014140	0.063030	0.00924	149.00	0.00	0.00	0.00000	0.000	1	0.00	0.00	-76.46	-10.81	77.29	13.60	0	0	0	0
1026	1025	0.004200	0.180460	0.00000	200.00	0.00	0.00	1.00000	0.000	1	0.00	0.00	93.15	-6.36	-92.78	22.09	0	0	0	0
1027	1045	0.025050	0.109570	0.01669	221.00	0.00	0.00	0.00000	0.000	1	0.00	0.00	40.73	15.39	-40.27	-15.08	0	0	0	0
1056	1027	0.031210	0.076300	0.00999	250.00	0.00	0.00	0.00000	0.000	1	0.00	0.00	99.53	-27.87	-96.40	34.48	0	0	0	0
1028	3109	0.004280	0.018750	0.00286	250.00	0.00	0.00	0.00000	0.000	1	0.00	0.00	73.88	-19.41	-73.64	20.17	0	0	0	0
1029	1056	0.020540	0.117330	0.01763	221.00	0.00	0.00	0.00000	0.000	1	0.00	0.00	-48.37	0.86	48.84	-0.07	0	0	0	0
1030	1038	0.074040	0.422850	0.06354	98.00	0.00	0.00	0.00000	0.000	1	0.00	0.00	-17.15	0.84	17.37	-6.23	0	0	0	0
1083	1030	0.065370	0.373340	0.05610	98.00	0.00	0.00	0.00000	0.000	1	0.00	0.00	9.73	-3.87	-9.67	-1.69	0	0	0	0
1033	1032	0.002830	0.067580	0.00000	170.00	0.00	0.00	1.00000	0.000	1	0.00	0.00	-164.18	52.32	164.97	-33.27	0	0	0	0
1032	1036	0.019560	0.117460	0.01594	98.00	0.00	0.00	0.00000	0.000	1	0.00	0.00	-19.01	5.80	19.09	-6.92	0	0	0	0
1038	1032	0.045000	0.110000	0.01500	155.00	0.00	0.00	0.00000	0.000	1	0.00	0.00	82.44	-12.23	-79.46	17.99	0	0	0	0
1033	1081	0.003000	0.031000	0.05900	548.00	0.00	0.00	0.00000	0.000	1	0.00	0.00	179.12	-27.76	-178.19	31.15	0	0	0	0
1033	3050	0.013900	0.136000	0.26200	647.00	0.00	0.00	0.00000	0.000	1	0.00	0.00	193.55	-11.92	-188.61	32.59	0	0	0	0
1035	1034	0.004380	0.084960	0.00000	130.00	0.00	0.00	1.00000	0.000	1	0.00	0.00	67.50	-12.80	-67.29	16.81	0	0	0	0
1067	1034	0.007950	0.047710	0.00647	98.00	0.00	0.00	0.00000	0.000	1	0.00	0.00	-61.87	2.85	62.17	-1.70	0	0	0	0
1088	1036	0.020650	0.117930	0.01772	98.00	0.00	0.00	0.00000	0.000	1	0.00	0.00	26.72	-3.99	-26.57	3.07	0	0	0	0
1037	1071	0.006690	0.043190	0.00824	300.00	0.00	0.00	0.00000	0.000	1	0.00	0.00	53.49	-36.84	-53.21	37.87	0	0	0	0
1039	1038	0.002010	0.085910	0.00000	200.00	0.00	0.00	1.00000	0.000	1	0.00	0.00	110.63	-21.24	-110.38	32.11	0	0	0	0
1082	1038	0.011150	0.049690	0.00729	149.00	0.00	0.00	0.00000	0.000	1	0.00	0.00	63.35	-7.80	-62.92	8.96	0	0	0	0
1083	1038	0.010000	0.050000	0.00700	221.00	0.00	0.00	0.00000	0.000	1	0.00	0.00	-72.92	24.70	73.49	-22.61	0	0	0	0
1040	1090	0.029910	0.133290	0.01955	149.00	0.00	0.00	0.00000	0.000	1	0.00	0.00	-62.23	1.79	63.39	1.37	0	0	0	0
1042	1041	0.004190	0.111230	0.00000	145.00	0.00	0.00	1.00000	0.000	1	0.00	0.00	0.00	0.00	0.00	0.00	0	0	0	0
1043	1041	0.003000	0.128440	0.00000	95.00	0.00	0.00	1.00000	0.000	1	0.00	0.00	44.10	-5.70	-44.04	8.24	0	0	0	0
1065	1041	0.003860	0.022030	0.00331	98.00	0.00	0.00	0.00000	0.000	1	0.00	0.00	0.37	8.59	-0.36	-8.91	0	0	0	0
1041	1067	0.003930	0.017220	0.00262	149.00	0.00	0.00	0.00000	0.000	1	0.00	0.00	44.40	0.67	-44.33	-0.60	0	0	0	0
1044	3019	0.038570	0.171920	0.02521	149.00	0.00	0.00	0.00000	0.000	1	0.00	0.00	62.74	-19.78	-61.15	24.26	0	0	0	0
3130	1044	0.027310	0.190290	0.03111	221.00	0.00	0.00	0.00000	0.000	1	0.00	0.00	72.22	-9.03	-70.82	15.62	0	0	0	0
1045	1064	0.005450	0.037940	0.00620	221.00	0.00	0.00	0.00000	0.000	1	0.00	0.00	27.07	12.14	-27.03	-12.41	0	0	0	0
1087	1046	0.032620	0.142690	0.02173	149.00	0.00	0.00	0.00000	0.000	1	0.00	0.00	76.79	-14.05	-74.93	19.90	0	0	0	0
1046	3009	0.056540	0.234540	0.03980	149.00	0.00	0.00	0.00000	0.000	1	0.00	0.00	68.83	-10.33	-66.27	16.77	0	0	0	0
1048	1047	0.003350	0.065760	0.00000	390.00	0.00	0.00	1.00000	0.000	1	0.00	0.00	0.00	0.00	0.00	0.00	0	0	0	0
1049	1047	0.002760	0.117830	0.00000	390.00	0.00	0.00	1.00000	0.000	1	0.00	0.00	0.00	0.00	0.00	0.00	0	0	0	0
1050	1047	0.003130	0.099410	0.00000	124.00	0.00	0.00	1.00000	0.000	1	0.00	0.00	83.04	-9.92	-82.83	16.85	0	0	0	0
1051	1047	0.005600	0.128300	0.00000	117.00	0.00	0.00	1.00000	0.000	1	0.00	0.00	83.04	-8.71	-82.65	17.66	0	0	0	0
1052	1047	0.003680	0.082600	0.00000	110.00	0.00	0.00	1.00000	0.000	1	0.00	0.00	0.00	0.00	0.00	0.00	0	0	0	0
1053	1047	0.002300	0.088080	0.00000	250.00	0.00	0.00	1.00000	0.000	1	0.00	0.00	-76.78	21.40	76.92	-16.09	0	0	0	0
1047	1085	0.009470	0.061170	0.01167	221.00	0.00	0.00	0.00000	0.000	1	0.00	0.00	24.60	-11.25	-24.53	10.48	0	0	0	0
1053	1081	0.003000	0.030000	0.06000	548.00	0.00	0.00	0.00000	0.000	1	0.00	0.00	76.78	-21.40	-76.60	16.82	0	0	0	0
1054	1056	0.022020	0.096330	0.01467	149.00	0.00	0.00	0.00000	0.000	1	0.00	0.00	-15.20	-9.88	15.27	8.64	0	0	0	0
1089	1054	0.087370	0.213570	0.02796	98.00	0.00	0.00	0.00000	0.000	1	0.00	0.00	-6.88	-8.27	6.96	5.64	0	0	0	0
1055	1089	0.049820	0.121790	0.01595	98.00	0.00	0.00	0.00000	0.000	1	0.00	0.00	15.58	1.93	-15.46	-3.23	0	0	0	0
1057	1056	0.003150	0.131200	0.00000	160.00	0.00	0.00	1.00000	0.000	1	0.00	0.00	0.00	0.00	0.00	0.00	0	0	0	0
1056	1061	0.022670	0.129460	0.01945	150.00	0.00	0.00	0.00000	0.000	1	0.00	0.00	-60.37	26.66	61.31	-23.31	0	0	0	0
1056	1065	0.022690	0.129620	0.01948	250.00	0.00	0.00	0.00000	0.000	1	0.00	0.00	-103.27	40.97	105.93	-27.81	0	0	0	0
1059	1058	0.026550	0.461870	0.00000	33.00	0.00	0.00	1.00000	0.000	1	0.00	0.00	0.00	0.00	0.00	0.00	0	0	0	0
1060	1058	0.008940	0.388540	0.00000	27.00	0.00	0.00	1.00000	0.000	1	0.00	0.00	0.00	0.00	0.00	0.00	0	0	0	0
1069	1058	0.007400	0.051550	0.00843	221.00	0.00	0.00	0.00000	0.000	1	0.00	0.00	80.87	-7.80	-80.41	10.13	0	0	0	0
1069	1058	0.007400	0.051550	0.00843	221.00	0.00	0.00	0.00000	0.000	1	0.00	0.00	80.87	-7.80	-80.41	10.13	0	0	0	0
1058	1087	0.015730	0.109560	0.01791	221.00	0.00	0.00	0.00000	0.000	1	0.00	0.00	76.71	-12.03	-75.82	16.38	0	0	0	0
1058	1087	0.015730	0.109560	0.01791	221.00	0.00	0.00	0.00000	0.000	1	0.00	0.00	76.71	-12.03	-75.82	16.38	0	0	0	0
1062	1061	0.016300	0.317870	0.00000	29.00	0.00	0.00	1.00000	0.000	1	0.00	0.00	0.00	0.00	0.00	0.00	0	0	0	0
1063	1061	0.005670	0.104090	0.00000	260.00	0.00	0.00	1.00000	0.000	1	0.00	0.00	0.00	0.00	0.00	0.00	0	0	0	0
1061	3042	0.054000	0.180000	0.02800	221.00	0.00	0.00	0.00000	0.000	1	0.00	0.00	30.71	-5.90	-30.21	4.75	0	0	0	0
1066	1065	0.005080	0.123150	0.00000	200.00	0.00	0.00	1.00000	0.000	1	0.00	0.00	106.88	-5.12	-106.30	19.22	0	0	0	0
1088	1068	0.029620	0.169210	0.02543	98.00	0.00	0.00	0.00000	0.000	1	0.00	0.00	29.53	-2.97	-29.27	1.92	0	0	0	0
1070	1069	0.002970	0.070000	0.00000	220.00	0.00	0.00	1.00000	0.000	1	0.00	0.00	120.38	17.65	-119.97	-8.07	0	0	0	0
1082	1069	0.021370	0.095200	0.01396	149.00	0.00	0.00	0.00000	0.000	1	0.00	0.00	49.15	-13.80	-48.62	14.67	0	0	0	0
1072	1071	0.005290	0.085510	0.00000	240.00	0.00	0.00	1.00000	0.000	1	0.00	0.00	178.47	13.34	-176.81	13.51	0	0	0	0
1073	1071	0.004990	0.142540	0.00000	240.00	0.00	0.00	1.00000	0.000	1	0.00	0.00	178.47	22.95	-176.89	22.30	0	0	0	0
1074	1071	0.005750	0.124530	0.00000	240.00	0.00	0.00	1.00000	0.000	1	0.00	0.00	0.00	0.00	0.00	0.00	0	0	0	0
1075	1071	0.003730	0.099670	0.00000	240.00	0.00	0.00	1.00000	0.000	1	0.00	0.00	0.00	0.00	0.00	0.00	0	0	0	0
1076	1071	0.001410	0.049370	0.00000	230.00	0.00	0.00	1.00000	0.000	1	0.00	0.00	0.00	0.00	0.00	0.00	0	0	0	0
...